<?xml version="1.0" encoding="UTF-8"?>

<!-- generated on Ter 23 Ago 2016 14:49:51 BRT by Netedit Version 0.26.0
<?xml version="1.0" encoding="UTF-8"?>

<configuration xmlns:xsi="http://www.w3.org/2001/XMLSchema-instance" xsi:noNamespaceSchemaLocation="http://sumo.dlr.de/xsd/netedit.exeConfiguration.xsd">

    <input>
        <sumo-net-file value="/home/lauro/Desktop/WAVE/newVersion/veins-master/estudoDeCaso/maracana.net.xml"/>
    </input>

    <output>
        <output-file value="/home/lauro/Desktop/WAVE/newVersion/veins-master/estudoDeCaso/maracana.net.xml"/>
    </output>

    <processing>
        <no-turnarounds value="true"/>
        <offset.disable-normalization value="true"/>
        <lefthand value="false"/>
        <junctions.corner-detail value="0"/>
    </processing>

</configuration>
-->

<net version="0.25" xmlns:xsi="http://www.w3.org/2001/XMLSchema-instance" xsi:noNamespaceSchemaLocation="http://sumo.dlr.de/xsd/net_file.xsd">

    <location netOffset="-680463.96,2536673.42" convBoundary="0.00,0.00,2201.43,2148.10" origBoundary="-43.240331,-22.928393,-43.218902,-22.908348" projParameter="+proj=utm +zone=23 +ellps=WGS84 +datum=WGS84 +units=m +no_defs"/>

    <edge id=":1393194222_0" function="internal">
        <lane id=":1393194222_0_0" index="0" disallow="tram rail_urban rail rail_electric ship" speed="20.84" length="5.33" shape="741.85,1005.84 743.13,1006.33 744.36,1006.36 745.56,1005.94 746.72,1005.06"/>
    </edge>
    <edge id=":1393194222_1" function="internal">
        <lane id=":1393194222_1_0" index="0" disallow="tram rail_urban rail rail_electric ship" speed="27.78" length="5.62" shape="741.85,1005.84 746.91,1009.44"/>
        <lane id=":1393194222_1_1" index="1" disallow="tram rail_urban rail rail_electric ship" speed="27.78" length="5.62" shape="740.26,1008.73 744.83,1012.00"/>
        <lane id=":1393194222_1_2" index="2" disallow="tram rail_urban rail rail_electric ship" speed="27.78" length="5.62" shape="738.67,1011.63 742.75,1014.56"/>
    </edge>
    <edge id=":1398859276_0" function="internal">
        <lane id=":1398859276_0_0" index="0" disallow="tram rail_urban rail rail_electric ship" speed="27.78" length="0.10" shape="472.97,729.16 472.96,729.10"/>
        <lane id=":1398859276_0_1" index="1" disallow="tram rail_urban rail rail_electric ship" speed="27.78" length="0.10" shape="469.73,729.78 469.73,729.78"/>
        <lane id=":1398859276_0_2" index="2" disallow="tram rail_urban rail rail_electric ship" speed="27.78" length="0.10" shape="466.49,730.41 466.50,730.45"/>
    </edge>
    <edge id=":1400531659_0" function="internal">
        <lane id=":1400531659_0_0" index="0" disallow="tram rail_urban rail rail_electric ship" speed="22.23" length="19.17" shape="1076.95,1347.01 1074.99,1341.94 1072.17,1339.16 1068.90,1336.54 1065.62,1331.92"/>
        <lane id=":1400531659_0_1" index="1" disallow="tram rail_urban rail rail_electric ship" speed="22.23" length="19.17" shape="1076.95,1347.01 1075.45,1341.75 1073.63,1338.43 1071.37,1335.26 1068.58,1330.45"/>
        <lane id=":1400531659_0_2" index="2" disallow="tram rail_urban rail rail_electric ship" speed="22.23" length="19.17" shape="1080.18,1346.36 1078.63,1340.85 1076.76,1337.36 1074.44,1334.02 1071.53,1328.98"/>
    </edge>
    <edge id=":1400531659_3" function="internal">
        <lane id=":1400531659_3_0" index="0" disallow="tram rail_urban rail rail_electric ship" speed="27.78" length="18.97" shape="1080.18,1346.36 1080.00,1341.53 1081.59,1337.65 1084.95,1334.73 1090.08,1332.76"/>
    </edge>
    <edge id=":1400531659_4" function="internal">
        <lane id=":1400531659_4_0" index="0" disallow="tram rail_urban rail rail_electric ship" speed="20.84" length="17.75" shape="1080.18,1346.36 1079.94,1341.39 1081.55,1338.08 1084.99,1336.44 1090.28,1336.46"/>
    </edge>
    <edge id=":1400531659_5" function="internal">
        <lane id=":1400531659_5_0" index="0" disallow="tram rail_urban rail rail_electric ship" speed="22.23" length="13.38" shape="1080.39,1324.57 1082.14,1327.28 1084.21,1329.02 1086.59,1329.78 1089.29,1329.56"/>
        <lane id=":1400531659_5_1" index="1" disallow="tram rail_urban rail rail_electric ship" speed="22.23" length="13.38" shape="1077.44,1326.04 1079.87,1329.75 1082.78,1332.11 1086.19,1333.11 1090.08,1332.76"/>
    </edge>
    <edge id=":1400531659_7" function="internal">
        <lane id=":1400531659_7_0" index="0" disallow="tram rail_urban rail rail_electric ship" speed="15.28" length="17.22" shape="1077.44,1326.04 1079.98,1330.18 1082.96,1333.29 1086.40,1335.39 1090.28,1336.46"/>
    </edge>
    <edge id=":1400531659_8" function="internal">
        <lane id=":1400531659_8_0" index="0" disallow="tram rail_urban rail rail_electric ship" speed="22.23" length="19.00" shape="1077.44,1326.04 1079.60,1331.11 1080.84,1334.75 1082.53,1338.08 1086.00,1342.21"/>
        <lane id=":1400531659_8_1" index="1" disallow="tram rail_urban rail rail_electric ship" speed="22.23" length="19.00" shape="1074.49,1327.51 1076.78,1332.85 1078.14,1336.68 1079.97,1340.17 1083.65,1344.52"/>
    </edge>
    <edge id=":1400531659_10" function="internal">
        <lane id=":1400531659_10_0" index="0" disallow="tram rail_urban rail rail_electric ship" speed="22.23" length="5.07" shape="1064.10,1336.04 1065.30,1335.31 1065.95,1334.38 1066.06,1333.25 1065.62,1331.92"/>
    </edge>
    <edge id=":1400531659_11" function="internal">
        <lane id=":1400531659_11_0" index="0" disallow="tram rail_urban rail rail_electric ship" speed="27.78" length="25.81" shape="1064.10,1336.04 1071.72,1333.22 1077.54,1331.80 1082.94,1330.87 1089.29,1329.56"/>
        <lane id=":1400531659_11_1" index="1" disallow="tram rail_urban rail rail_electric ship" speed="27.78" length="25.81" shape="1065.39,1339.07 1072.83,1336.33 1078.49,1334.95 1083.78,1334.06 1090.08,1332.76"/>
    </edge>
    <edge id=":1400531659_13" function="internal">
        <lane id=":1400531659_13_0" index="0" disallow="tram rail_urban rail rail_electric ship" speed="20.84" length="24.49" shape="1066.68,1342.11 1074.38,1339.14 1080.81,1337.26 1086.07,1336.39 1090.28,1336.46"/>
    </edge>
    <edge id=":1400531659_14" function="internal">
        <lane id=":1400531659_14_0" index="0" disallow="tram rail_urban rail rail_electric ship" speed="27.78" length="18.30" shape="1066.68,1342.11 1071.60,1340.62 1076.07,1340.53 1080.09,1341.83 1083.65,1344.52"/>
    </edge>
    <edge id=":1400531669_0" function="internal">
        <lane id=":1400531669_0_0" index="0" disallow="tram rail_urban rail rail_electric ship" speed="20.84" length="6.44" shape="835.77,1081.32 837.47,1082.36 839.01,1082.78 840.39,1082.59 841.60,1081.78"/>
    </edge>
    <edge id=":1400531669_1" function="internal">
        <lane id=":1400531669_1_0" index="0" disallow="tram rail_urban rail rail_electric ship" speed="27.78" length="7.39" shape="835.77,1081.32 841.71,1086.16"/>
        <lane id=":1400531669_1_1" index="1" disallow="tram rail_urban rail rail_electric ship" speed="27.78" length="7.39" shape="833.79,1083.96 839.52,1088.63"/>
        <lane id=":1400531669_1_2" index="2" disallow="tram rail_urban rail rail_electric ship" speed="27.78" length="7.39" shape="831.80,1086.60 837.33,1091.09"/>
    </edge>
    <edge id=":1400531669_4" function="internal">
        <lane id=":1400531669_4_0" index="0" disallow="tram rail_urban rail rail_electric ship" speed="13.89" length="13.27" shape="832.04,1090.97 834.57,1088.58 836.85,1086.41 839.12,1084.21 841.60,1081.78"/>
    </edge>
    <edge id=":1400531669_5" function="internal">
        <lane id=":1400531669_5_0" index="0" disallow="tram rail_urban rail rail_electric ship" speed="20.84" length="7.24" shape="832.04,1090.97 834.35,1089.09 836.37,1088.07 838.09,1087.92 839.52,1088.63"/>
        <lane id=":1400531669_5_1" index="1" disallow="tram rail_urban rail rail_electric ship" speed="20.84" length="7.24" shape="832.04,1090.97 833.31,1090.10 834.61,1089.82 835.95,1090.16 837.33,1091.09"/>
    </edge>
    <edge id=":1400531670_0" function="internal">
        <lane id=":1400531670_0_0" index="0" disallow="tram rail_urban rail rail_electric ship" speed="27.78" length="0.74" shape="1082.90,1362.27 1082.34,1361.30"/>
        <lane id=":1400531670_0_1" index="1" disallow="tram rail_urban rail rail_electric ship" speed="27.78" length="0.74" shape="1085.54,1360.29 1085.36,1359.98"/>
    </edge>
    <edge id=":1400531671_0" function="internal">
        <lane id=":1400531671_0_0" index="0" disallow="tram rail_urban rail rail_electric ship" speed="27.78" length="0.15" shape="449.64,738.32 449.63,738.27"/>
        <lane id=":1400531671_0_1" index="1" disallow="tram rail_urban rail rail_electric ship" speed="27.78" length="0.15" shape="452.87,737.66 452.87,737.66"/>
        <lane id=":1400531671_0_2" index="2" disallow="tram rail_urban rail rail_electric ship" speed="27.78" length="0.15" shape="456.14,737.15 456.09,736.90"/>
    </edge>
    <edge id=":1400531682_0" function="internal">
        <lane id=":1400531682_0_0" index="0" disallow="tram rail_urban rail rail_electric ship" speed="27.78" length="8.04" shape="823.98,1105.51 817.10,1100.36"/>
        <lane id=":1400531682_0_1" index="1" disallow="tram rail_urban rail rail_electric ship" speed="27.78" length="8.04" shape="825.75,1102.72 819.31,1097.90"/>
        <lane id=":1400531682_0_2" index="2" disallow="tram rail_urban rail rail_electric ship" speed="27.78" length="8.04" shape="827.52,1099.94 821.52,1095.45"/>
    </edge>
    <edge id=":1400531682_3" function="internal">
        <lane id=":1400531682_3_0" index="0" disallow="tram rail_urban rail rail_electric ship" speed="20.84" length="5.33" shape="827.52,1099.94 826.37,1098.95 825.92,1097.90 826.17,1096.78 827.12,1095.59"/>
    </edge>
    <edge id=":1400531682_4" function="internal">
        <lane id=":1400531682_4_0" index="0" disallow="tram rail_urban rail rail_electric ship" speed="20.84" length="5.14" shape="817.08,1104.74 818.01,1103.65 818.32,1102.55 818.02,1101.46 817.10,1100.36"/>
    </edge>
    <edge id=":1400531682_5" function="internal">
        <lane id=":1400531682_5_0" index="0" disallow="tram rail_urban rail rail_electric ship" speed="13.89" length="13.58" shape="817.08,1104.74 819.72,1102.40 822.14,1100.21 824.54,1098.00 827.12,1095.59"/>
    </edge>
    <edge id=":1400531699_0" function="internal">
        <lane id=":1400531699_0_0" index="0" disallow="tram rail_urban rail rail_electric ship" speed="25.00" length="5.04" shape="1169.43,1448.58 1168.40,1449.51 1167.94,1450.54 1168.03,1451.67 1168.68,1452.90"/>
    </edge>
    <edge id=":1400531699_1" function="internal">
        <lane id=":1400531699_1_0" index="0" disallow="tram rail_urban rail rail_electric ship" speed="22.22" length="9.55" shape="1169.43,1448.58 1161.61,1454.06"/>
    </edge>
    <edge id=":1400531699_2" function="internal">
        <lane id=":1400531699_2_0" index="0" disallow="tram rail_urban rail rail_electric ship" speed="27.78" length="6.27" shape="1165.05,1447.84 1168.68,1452.90"/>
        <lane id=":1400531699_2_1" index="1" disallow="tram rail_urban rail rail_electric ship" speed="27.78" length="6.27" shape="1162.35,1449.73 1166.02,1454.85"/>
    </edge>
    <edge id=":1400531700_0" function="internal">
        <lane id=":1400531700_0_0" index="0" disallow="tram rail_urban rail rail_electric ship" speed="13.89" length="5.12" shape="779.28,1133.77 780.35,1134.72 781.45,1135.10 782.58,1134.92 783.74,1134.17"/>
    </edge>
    <edge id=":1400531700_1" function="internal">
        <lane id=":1400531700_1_0" index="0" disallow="tram rail_urban rail rail_electric ship" speed="13.89" length="6.28" shape="779.28,1133.77 783.27,1138.62"/>
    </edge>
    <edge id=":1400531700_2" function="internal">
        <lane id=":1400531700_2_0" index="0" disallow="tram rail_urban rail rail_electric ship" speed="13.89" length="6.36" shape="778.77,1138.13 783.74,1134.17"/>
    </edge>
    <edge id=":1400531700_3" function="internal">
        <lane id=":1400531700_3_0" index="0" disallow="tram rail_urban rail rail_electric ship" speed="13.89" length="1.62" shape="778.77,1138.13 780.04,1137.45 780.21,1137.43"/>
    </edge>
    <edge id=":1400531700_4" function="internal">
        <lane id=":1400531700_4_0" index="0" speed="13.89" length="3.50" shape="780.21,1137.43 781.21,1137.30 782.29,1137.70 783.27,1138.62"/>
    </edge>
    <edge id=":1400531718_0" function="internal">
        <lane id=":1400531718_0_0" index="0" disallow="tram rail_urban rail rail_electric ship" speed="27.78" length="0.10" shape="448.65,732.56 448.64,732.51"/>
        <lane id=":1400531718_0_1" index="1" disallow="tram rail_urban rail rail_electric ship" speed="27.78" length="0.10" shape="451.90,732.01 451.90,732.01"/>
        <lane id=":1400531718_0_2" index="2" disallow="tram rail_urban rail rail_electric ship" speed="27.78" length="0.10" shape="455.15,731.45 455.16,731.52"/>
    </edge>
    <edge id=":1400542283_0" function="internal">
        <lane id=":1400542283_0_0" index="0" disallow="tram rail_urban rail rail_electric ship" speed="22.22" length="0.39" shape="1727.33,1916.49 1727.65,1916.71"/>
    </edge>
    <edge id=":1400542287_0" function="internal">
        <lane id=":1400542287_0_0" index="0" disallow="tram rail_urban rail rail_electric ship" speed="22.22" length="9.35" shape="1573.73,1847.77 1581.68,1852.69"/>
    </edge>
    <edge id=":1400542287_1" function="internal">
        <lane id=":1400542287_1_0" index="0" disallow="tram rail_urban rail rail_electric ship" speed="22.22" length="7.77" shape="1573.73,1847.77 1575.91,1849.48 1577.25,1851.07 1577.77,1852.53 1577.46,1853.86"/>
    </edge>
    <edge id=":1400542287_2" function="internal">
        <lane id=":1400542287_2_0" index="0" disallow="tram rail_urban rail rail_electric ship" speed="22.22" length="7.80" shape="1574.60,1852.21 1575.61,1851.26 1577.12,1851.02 1579.15,1851.49 1581.68,1852.69"/>
    </edge>
    <edge id=":1400542287_3" function="internal">
        <lane id=":1400542287_3_0" index="0" disallow="tram rail_urban rail rail_electric ship" speed="22.22" length="4.82" shape="1574.60,1852.21 1575.93,1851.55 1576.85,1851.60 1577.36,1852.37 1577.46,1853.86"/>
    </edge>
    <edge id=":1400542290_0" function="internal">
        <lane id=":1400542290_0_0" index="0" disallow="tram rail_urban rail rail_electric ship" speed="22.22" length="9.60" shape="1503.46,1789.29 1509.10,1797.05"/>
    </edge>
    <edge id=":1400542290_1" function="internal">
        <lane id=":1400542290_1_0" index="0" disallow="tram rail_urban rail rail_electric ship" speed="18.05" length="9.70" shape="1500.79,1792.05 1509.10,1797.05"/>
    </edge>
    <edge id=":1400542293_0" function="internal">
        <lane id=":1400542293_0_0" index="0" disallow="tram rail_urban rail rail_electric ship" speed="22.22" length="0.45" shape="1682.76,1903.98 1683.18,1904.12"/>
    </edge>
    <edge id=":1400543880_0" function="internal">
        <lane id=":1400543880_0_0" index="0" disallow="tram rail_urban rail rail_electric ship" speed="27.78" length="0.39" shape="1439.07,1774.80 1439.22,1774.92"/>
        <lane id=":1400543880_0_1" index="1" disallow="tram rail_urban rail rail_electric ship" speed="27.78" length="0.39" shape="1436.84,1777.24 1437.30,1777.60"/>
    </edge>
    <edge id=":1400543881_0" function="internal">
        <lane id=":1400543881_0_0" index="0" disallow="tram rail_urban rail rail_electric bicycle pedestrian ship" speed="27.78" length="46.30" shape="1652.28,1911.26 1661.75,1914.50 1673.96,1919.07 1686.21,1923.48 1695.81,1926.23"/>
        <lane id=":1400543881_0_1" index="1" disallow="tram rail_urban rail rail_electric bicycle pedestrian ship" speed="27.78" length="46.30" shape="1651.17,1914.38 1660.72,1917.63 1673.10,1922.25 1685.51,1926.70 1695.18,1929.47"/>
    </edge>
    <edge id=":1400543881_2" function="internal">
        <lane id=":1400543881_2_0" index="0" disallow="tram rail_urban rail rail_electric bicycle pedestrian ship" speed="27.78" length="46.39" shape="1650.25,1917.65 1660.16,1919.35 1673.06,1921.78 1685.94,1924.30 1695.81,1926.23"/>
        <lane id=":1400543881_2_1" index="1" disallow="tram rail_urban rail rail_electric bicycle pedestrian ship" speed="27.78" length="46.39" shape="1649.56,1920.88 1659.48,1922.58 1672.39,1925.02 1685.30,1927.54 1695.18,1929.47"/>
    </edge>
    <edge id=":1400543884_0" function="internal">
        <lane id=":1400543884_0_0" index="0" disallow="tram rail_urban rail rail_electric ship" speed="25.00" length="5.16" shape="1435.08,1797.84 1432.40,1793.43"/>
    </edge>
    <edge id=":1400543884_1" function="internal">
        <lane id=":1400543884_1_0" index="0" disallow="tram rail_urban rail rail_electric ship" speed="27.78" length="5.53" shape="1437.86,1795.44 1432.40,1793.43"/>
        <lane id=":1400543884_1_1" index="1" disallow="tram rail_urban rail rail_electric ship" speed="27.78" length="5.53" shape="1439.95,1792.88 1434.93,1791.32"/>
    </edge>
    <edge id=":1400543886_0" function="internal">
        <lane id=":1400543886_0_0" index="0" disallow="tram rail_urban rail rail_electric ship" speed="22.22" length="0.28" shape="1717.95,1911.59 1718.20,1911.70"/>
    </edge>
    <edge id=":1400544011_0" function="internal">
        <lane id=":1400544011_0_0" index="0" disallow="tram rail_urban rail rail_electric ship" speed="27.78" length="5.71" shape="565.02,960.23 560.06,956.14"/>
        <lane id=":1400544011_0_1" index="1" disallow="tram rail_urban rail rail_electric ship" speed="27.78" length="5.71" shape="566.91,957.52 562.49,953.90"/>
        <lane id=":1400544011_0_2" index="2" disallow="tram rail_urban rail rail_electric ship" speed="27.78" length="5.71" shape="568.80,954.82 564.92,951.67"/>
    </edge>
    <edge id=":1436079298_0" function="internal">
        <lane id=":1436079298_0_0" index="0" disallow="tram rail_urban rail rail_electric ship" speed="22.22" length="0.67" shape="532.60,1418.50 532.29,1418.40"/>
        <lane id=":1436079298_0_1" index="1" disallow="tram rail_urban rail rail_electric ship" speed="22.22" length="0.67" shape="533.95,1415.49 533.00,1415.18"/>
    </edge>
    <edge id=":1436710973_0" function="internal">
        <lane id=":1436710973_0_0" index="0" disallow="tram rail_urban rail rail_electric ship" speed="22.22" length="0.25" shape="1658.60,1971.99 1658.37,1971.88"/>
    </edge>
    <edge id=":1436720488_0" function="internal">
        <lane id=":1436720488_0_0" index="0" disallow="tram rail_urban rail rail_electric bicycle pedestrian ship" speed="27.78" length="0.16" shape="240.22,2133.82 240.27,2133.77"/>
        <lane id=":1436720488_0_1" index="1" disallow="tram rail_urban rail rail_electric bicycle pedestrian ship" speed="27.78" length="0.16" shape="242.55,2136.16 242.70,2136.00"/>
    </edge>
    <edge id=":1436720500_0" function="internal">
        <lane id=":1436720500_0_0" index="0" disallow="tram rail_urban rail rail_electric bicycle pedestrian ship" speed="27.78" length="0.10" shape="1039.35,1986.63 1039.30,1986.63"/>
        <lane id=":1436720500_0_1" index="1" disallow="tram rail_urban rail rail_electric bicycle pedestrian ship" speed="27.78" length="0.10" shape="1039.44,1989.93 1039.44,1989.93"/>
    </edge>
    <edge id=":1436732257_0" function="internal">
        <lane id=":1436732257_0_0" index="0" disallow="tram rail_urban rail rail_electric ship" speed="22.22" length="0.56" shape="726.04,2009.54 725.10,2009.48"/>
        <lane id=":1436732257_0_1" index="1" disallow="tram rail_urban rail rail_electric ship" speed="22.22" length="0.56" shape="726.06,2006.24 725.50,2006.21"/>
        <lane id=":1436732257_0_2" index="2" disallow="tram rail_urban rail rail_electric ship" speed="22.22" length="0.56" shape="726.08,2002.94 725.90,2002.93"/>
    </edge>
    <edge id=":1436807737_0" function="internal">
        <lane id=":1436807737_0_0" index="0" disallow="tram rail_urban rail rail_electric bicycle pedestrian ship" speed="25.00" length="6.41" shape="1494.67,1946.97 1489.86,1942.73"/>
    </edge>
    <edge id=":1436807737_1" function="internal">
        <lane id=":1436807737_1_0" index="0" disallow="tram rail_urban rail rail_electric bicycle pedestrian ship" speed="27.78" length="22.68" shape="1511.59,1943.31 1507.41,1942.55 1502.34,1940.89 1496.35,1939.49 1489.41,1939.46"/>
    </edge>
    <edge id=":1436807737_2" function="internal">
        <lane id=":1436807737_2_0" index="0" disallow="tram rail_urban rail rail_electric bicycle pedestrian ship" speed="27.78" length="21.66" shape="1511.34,1939.95 1505.19,1940.75 1500.60,1941.32 1496.00,1941.89 1489.86,1942.73"/>
        <lane id=":1436807737_2_1" index="1" disallow="tram rail_urban rail rail_electric bicycle pedestrian ship" speed="27.78" length="21.66" shape="1510.90,1936.68 1504.75,1937.48 1500.15,1938.05 1495.55,1938.63 1489.41,1939.46"/>
    </edge>
    <edge id=":1473525357_0" function="internal">
        <lane id=":1473525357_0_0" index="0" disallow="tram rail_urban rail rail_electric ship" speed="13.89" length="0.21" shape="1054.23,833.43 1054.24,833.23"/>
    </edge>
    <edge id=":1473525371_0" function="internal">
        <lane id=":1473525371_0_0" index="0" disallow="tram rail_urban rail rail_electric ship" speed="22.22" length="0.10" shape="950.43,944.85 950.43,944.85"/>
    </edge>
    <edge id=":1473562085_0" function="internal">
        <lane id=":1473562085_0_0" index="0" disallow="tram rail_urban rail rail_electric ship" speed="22.22" length="6.29" shape="828.32,757.01 831.83,762.23"/>
    </edge>
    <edge id=":1473562085_1" function="internal">
        <lane id=":1473562085_1_0" index="0" disallow="tram rail_urban rail rail_electric ship" speed="18.05" length="5.21" shape="827.27,761.26 828.67,760.75 829.90,760.74 830.95,761.24 831.83,762.23"/>
    </edge>
    <edge id=":1565188414_0" function="internal">
        <lane id=":1565188414_0_0" index="0" disallow="tram rail_urban rail rail_electric ship" speed="18.05" length="5.30" shape="1442.86,1753.28 1441.91,1754.44 1441.64,1755.56 1442.06,1756.63 1443.16,1757.65"/>
    </edge>
    <edge id=":1565188414_1" function="internal">
        <lane id=":1565188414_1_0" index="0" disallow="tram rail_urban rail rail_electric ship" speed="22.22" length="6.69" shape="1442.86,1753.28 1437.67,1757.50"/>
    </edge>
    <edge id=":1565188414_2" function="internal">
        <lane id=":1565188414_2_0" index="0" disallow="tram rail_urban rail rail_electric ship" speed="13.89" length="6.64" shape="1438.26,1753.15 1443.16,1757.65"/>
    </edge>
    <edge id=":1565188454_0" function="internal">
        <lane id=":1565188454_0_0" index="0" disallow="tram rail_urban rail rail_electric ship" speed="18.05" length="5.03" shape="1182.95,1439.38 1181.94,1440.32 1181.47,1441.35 1181.56,1442.48 1182.20,1443.70"/>
    </edge>
    <edge id=":1565188454_1" function="internal">
        <lane id=":1565188454_1_0" index="0" disallow="tram rail_urban rail rail_electric ship" speed="22.22" length="6.32" shape="1182.95,1439.38 1177.73,1442.95"/>
    </edge>
    <edge id=":1565188454_2" function="internal">
        <lane id=":1565188454_2_0" index="0" disallow="tram rail_urban rail rail_electric ship" speed="13.89" length="6.32" shape="1178.45,1438.62 1182.20,1443.70"/>
    </edge>
    <edge id=":1565188454_3" function="internal">
        <lane id=":1565188454_3_0" index="0" disallow="tram rail_urban rail rail_electric ship" speed="18.05" length="5.06" shape="1178.45,1438.62 1179.12,1439.84 1179.23,1440.97 1178.77,1442.01 1177.73,1442.95"/>
    </edge>
    <edge id=":1565188469_0" function="internal">
        <lane id=":1565188469_0_0" index="0" disallow="tram rail_urban rail rail_electric ship" speed="22.22" length="5.06" shape="1241.33,1399.54 1240.25,1400.43 1239.73,1401.44 1239.78,1402.57 1240.39,1403.83"/>
    </edge>
    <edge id=":1565188469_1" function="internal">
        <lane id=":1565188469_1_0" index="0" disallow="tram rail_urban rail rail_electric ship" speed="22.22" length="6.29" shape="1241.33,1399.54 1236.04,1402.95"/>
    </edge>
    <edge id=":1565188469_2" function="internal">
        <lane id=":1565188469_2_0" index="0" disallow="tram rail_urban rail rail_electric ship" speed="22.22" length="6.24" shape="1236.95,1398.62 1240.39,1403.83"/>
    </edge>
    <edge id=":1565188469_3" function="internal">
        <lane id=":1565188469_3_0" index="0" disallow="tram rail_urban rail rail_electric ship" speed="22.22" length="1.59" shape="1236.95,1398.62 1237.51,1399.85 1237.52,1400.09"/>
    </edge>
    <edge id=":1565188469_4" function="internal">
        <lane id=":1565188469_4_0" index="0" speed="22.22" length="3.42" shape="1237.52,1400.09 1237.55,1400.99 1237.06,1402.02 1236.04,1402.95"/>
    </edge>
    <edge id=":1787996536_0" function="internal">
        <lane id=":1787996536_0_0" index="0" disallow="tram rail_urban rail rail_electric ship" speed="22.23" length="4.95" shape="867.17,1131.71 863.67,1129.32"/>
        <lane id=":1787996536_0_1" index="1" disallow="tram rail_urban rail rail_electric ship" speed="22.23" length="4.95" shape="869.26,1129.15 865.16,1126.38"/>
        <lane id=":1787996536_0_2" index="2" disallow="tram rail_urban rail rail_electric ship" speed="22.23" length="4.95" shape="871.34,1126.60 866.65,1123.43"/>
    </edge>
    <edge id=":1787996536_3" function="internal">
        <lane id=":1787996536_3_0" index="0" disallow="tram rail_urban rail rail_electric ship" speed="16.67" length="2.41" shape="871.34,1126.60 870.90,1125.18 871.10,1124.28"/>
    </edge>
    <edge id=":1787996536_9" function="internal">
        <lane id=":1787996536_9_0" index="0" speed="16.67" length="2.41" shape="871.10,1124.28 871.95,1123.90 873.43,1124.04"/>
    </edge>
    <edge id=":1787996536_4" function="internal">
        <lane id=":1787996536_4_0" index="0" disallow="tram rail_urban rail rail_electric ship" speed="22.23" length="5.34" shape="875.26,1116.54 877.60,1118.92"/>
        <lane id=":1787996536_4_1" index="1" disallow="tram rail_urban rail rail_electric ship" speed="22.23" length="5.34" shape="875.26,1116.54 875.51,1121.48"/>
        <lane id=":1787996536_4_2" index="2" disallow="tram rail_urban rail rail_electric ship" speed="22.23" length="5.34" shape="875.26,1116.54 873.43,1124.04"/>
    </edge>
    <edge id=":1787996536_7" function="internal">
        <lane id=":1787996536_7_0" index="0" disallow="tram rail_urban rail rail_electric ship" speed="27.78" length="16.12" shape="872.66,1118.57 877.78,1126.23 878.24,1130.09 874.03,1130.13 865.16,1126.38"/>
        <lane id=":1787996536_7_1" index="1" disallow="tram rail_urban rail rail_electric ship" speed="27.78" length="16.12" shape="870.06,1120.59 872.04,1123.59 872.13,1125.06 871.92,1125.06"/>
    </edge>
    <edge id=":1787996536_10" function="internal">
        <lane id=":1787996536_10_0" index="0" speed="27.78" length="5.60" shape="871.92,1125.06 870.34,1125.01 866.65,1123.43"/>
    </edge>
    <edge id=":1834821228_0" function="internal">
        <lane id=":1834821228_0_0" index="0" disallow="tram rail_urban rail rail_electric ship" speed="22.22" length="0.10" shape="1594.78,1711.65 1594.78,1711.65"/>
    </edge>
    <edge id=":1834821232_0" function="internal">
        <lane id=":1834821232_0_0" index="0" disallow="tram rail_urban rail rail_electric ship" speed="25.00" length="7.92" shape="520.60,1392.19 520.53,1393.54 520.97,1394.65 521.91,1395.51 523.35,1396.13"/>
        <lane id=":1834821232_0_1" index="1" disallow="tram rail_urban rail rail_electric ship" speed="25.00" length="7.92" shape="517.37,1391.50 517.21,1394.22 518.00,1396.43 519.74,1398.12 522.43,1399.30"/>
    </edge>
    <edge id=":1834821232_2" function="internal">
        <lane id=":1834821232_2_0" index="0" disallow="tram rail_urban rail rail_electric ship" speed="22.22" length="10.01" shape="517.37,1391.50 517.26,1394.47 517.99,1396.54 518.74,1398.60 518.69,1401.59"/>
        <lane id=":1834821232_2_1" index="1" disallow="tram rail_urban rail rail_electric ship" speed="22.22" length="10.01" shape="517.37,1391.50 515.45,1400.97"/>
    </edge>
    <edge id=":1834821232_4" function="internal">
        <lane id=":1834821232_4_0" index="0" disallow="tram rail_urban rail rail_electric ship" speed="27.78" length="9.92" shape="513.46,1393.94 516.43,1394.41 518.46,1394.79 520.46,1395.30 523.35,1396.13"/>
        <lane id=":1834821232_4_1" index="1" disallow="tram rail_urban rail rail_electric ship" speed="27.78" length="9.92" shape="512.96,1397.20 522.43,1399.30"/>
    </edge>
    <edge id=":1834821247_0" function="internal">
        <lane id=":1834821247_0_0" index="0" disallow="tram rail_urban rail rail_electric ship" speed="27.78" length="0.52" shape="828.06,1412.94 828.68,1412.33"/>
        <lane id=":1834821247_0_1" index="1" disallow="tram rail_urban rail rail_electric ship" speed="27.78" length="0.52" shape="830.49,1415.16 830.87,1414.80"/>
        <lane id=":1834821247_0_2" index="2" disallow="tram rail_urban rail rail_electric ship" speed="27.78" length="0.52" shape="832.93,1417.39 833.05,1417.27"/>
    </edge>
    <edge id=":1834821249_0" function="internal">
        <lane id=":1834821249_0_0" index="0" disallow="tram rail_urban rail rail_electric ship" speed="22.22" length="11.85" shape="1576.87,1687.99 1574.87,1685.42 1573.16,1683.37 1571.41,1681.35 1569.30,1678.87"/>
    </edge>
    <edge id=":1834821249_1" function="internal">
        <lane id=":1834821249_1_0" index="0" disallow="tram rail_urban rail rail_electric ship" speed="22.22" length="11.86" shape="1576.87,1687.99 1575.14,1685.26 1574.17,1682.79 1573.45,1680.19 1572.51,1677.05"/>
    </edge>
    <edge id=":1834821252_0" function="internal">
        <lane id=":1834821252_0_0" index="0" disallow="tram rail_urban rail rail_electric ship" speed="22.22" length="7.52" shape="1500.16,1001.35 1494.48,996.41"/>
    </edge>
    <edge id=":1834821252_1" function="internal">