<?xml version="1.0" encoding="UTF-8"?>

<!--<additional xmlns:xsi="http://www.w3.org/2001/XMLSchema-instance" xsi:noNamespaceSchemaLocation="http://sumo.dlr.de/xsd/additional_file.xsd">
    <location netOffset="-680463.96,2536673.42" convBoundary="-57.87,-0.00,2409.48,2161.82" origBoundary="-43.240797,-22.928393,-43.216889,-22.908348" projParameter="+proj=utm +zone=23 +ellps=WGS84 +datum=WGS84 +units=m +no_defs"/> -->
<shapes>
    <poly id="125434684" type="unknown" color="51,128,255" fill="0" layer="-1.00" shape="1486.99,1829.09 1450.53,1803.63 1427.19,1784.61 1409.26,1763.16"/>
    <poly id="130443852" type="unknown" color="51,128,255" fill="0" layer="-1.00" shape="1766.54,1959.63 1726.55,1948.57 1717.75,1946.53 1693.20,1941.13 1644.15,1930.77 1615.41,1927.84 1544.72,1933.79 1468.90,1943.99"/>
    <poly id="130445508" type="unknown" color="51,128,255" fill="0" layer="-1.00" shape="724.03,1940.61 724.93,1944.86 724.95,1949.29 724.62,1953.14 723.43,1958.75 721.41,1963.31 718.58,1967.30 715.13,1970.37 710.07,1973.09 704.64,1974.05 698.54,1973.14 693.24,1970.61 687.93,1965.94 684.01,1961.76 677.38,1954.38 670.97,1945.26 661.93,1920.99"/>
    <poly id="130447297" type="unknown" color="51,128,255" fill="0" layer="-1.00" shape="1744.71,1977.93 1738.34,1978.43 1733.09,1982.25 1722.91,1994.85 1714.78,2012.98 1705.78,2047.75 1697.71,2081.57 1697.96,2089.06 1699.57,2094.73 1704.06,2099.70 1710.30,2102.86 1809.06,2126.85"/>
    <poly id="130449872" type="unknown" color="51,128,255" fill="0" layer="-1.00" shape="1717.75,1946.53 1716.40,1952.49 1716.91,1953.67 1717.93,1954.56 1729.00,1959.58 1729.81,1960.58 1730.03,1961.74"/>
    <poly id="130449875" type="unknown" color="51,128,255" fill="0" layer="-1.00" shape="1557.66,1952.15 1521.27,1950.03 1468.90,1943.99"/>
    <poly id="130449877" type="unknown" color="51,128,255" fill="0" layer="-1.00" shape="1729.02,1966.62 1725.48,1979.67 1723.86,1982.28 1720.68,1985.80 1717.79,1989.56 1715.34,1994.23 1703.71,2037.25"/>
    <poly id="131269852" type="unknown" color="51,128,255" fill="0" layer="-1.00" shape="1690.63,1023.95 1762.03,908.77 1768.00,899.15 1774.53,888.60 1775.78,886.60 1776.22,885.89 1779.10,881.24 1788.73,865.71"/>
    <poly id="134212794" type="water" color="181,209,209" fill="0" layer="-10.00" shape="238.27,1347.45 508.31,1402.93"/>
    <poly id="134212796" type="water" color="181,209,209" fill="0" layer="-10.00" shape="901.47,1981.72 1057.68,1995.72 1516.02,1928.84 1644.52,1914.75 1751.01,1926.82"/>
    <poly id="142993587" type="unknown" color="51,128,255" fill="0" layer="-1.00" shape="662.26,1605.92 682.94,1587.19 700.46,1566.01 705.03,1561.08 708.74,1555.23"/>
    <poly id="143042484" type="unknown" color="51,128,255" fill="0" layer="-1.00" shape="1076.12,1334.52 1091.41,1336.61 1098.73,1338.71 1104.79,1343.03 1170.32,1427.87 1180.37,1441.16 1185.13,1447.78 1221.77,1492.01 1230.38,1501.24 1252.20,1517.00 1264.09,1528.86 1326.21,1608.29 1377.83,1674.61 1421.34,1732.07 1440.27,1755.65"/>
    <poly id="145633643" type="historic" color="128,255,128" fill="1" layer="2.00" shape="526.29,1644.89 520.95,1644.68 517.60,1642.47 510.57,1631.55 537.10,1640.68 526.29,1644.89"/>
    <poly id="145633643#1" type="tourism" color="207,245,201" fill="1" layer="2.00" shape="526.29,1644.89 520.95,1644.68 517.60,1642.47 510.57,1631.55 537.10,1640.68 526.29,1644.89"/>
    <poly id="163532015" type="unknown" color="51,128,255" fill="0" layer="-1.00" shape="593.63,578.15 753.91,650.92 830.23,759.74 871.14,823.69 918.06,893.50 950.43,944.84 959.71,960.04 961.67,963.74 999.79,1024.41 1032.97,1077.23 1083.53,1155.44 1113.96,1203.49 1177.42,1296.76 1180.32,1301.15 1190.13,1323.29"/>
    <poly id="164419688" type="unknown" color="51,128,255" fill="0" layer="-1.00" shape="637.66,1471.24 644.93,1491.56 650.71,1510.53 655.28,1533.99 660.48,1574.16 660.55,1579.63 662.26,1605.92"/>
    <poly id="164419693" type="unknown" color="51,128,255" fill="0" layer="-1.00" shape="637.66,1471.24 692.90,1537.99 696.08,1541.31 708.74,1555.23"/>
    <poly id="164419698" type="unknown" color="51,128,255" fill="0" layer="-1.00" shape="708.74,1555.23 749.36,1508.13 769.33,1482.13 830.67,1414.96 834.66,1411.44 846.32,1402.67 861.71,1396.20 945.88,1373.55 951.68,1371.78 962.70,1368.24 1036.57,1350.57 1041.20,1349.32 1076.12,1334.52"/>
    <poly id="164419705" type="unknown" color="51,128,255" fill="0" layer="-1.00" shape="652.18,1775.61 650.08,1748.13 645.94,1653.30 644.75,1616.81"/>
    <poly id="164419707" type="unknown" color="51,128,255" fill="0" layer="-1.00" shape="1076.12,1334.52 1087.12,1345.70 1099.82,1360.48 1157.57,1440.06 1165.44,1451.27"/>
    <poly id="164419709" type="unknown" color="51,128,255" fill="0" layer="-1.00" shape="1076.12,1334.52 1099.31,1328.77 1159.32,1325.22 1164.89,1324.83 1190.13,1323.29"/>
    <poly id="164419714" type="unknown" color="51,128,255" fill="0" layer="-1.00" shape="1693.78,1927.51 1711.54,1930.95 1721.37,1933.17 1743.81,1939.30 1764.62,1943.63 1841.42,1958.55 1878.82,1963.00 1900.78,1963.73 1920.65,1965.88 1966.99,1983.27 1984.45,1987.52 2004.62,1989.77 2025.19,1990.80 2044.90,1990.61 2098.29,1988.58"/>
    <poly id="164892709" type="unknown" color="51,128,255" fill="0" layer="-1.00" shape="1238.60,1401.18 1298.69,1489.60 1454.88,1720.45 1458.49,1724.79 1465.75,1731.76"/>
    <poly id="164913333" type="unknown" color="51,128,255" fill="0" layer="-1.00" shape="1669.65,1492.26 1683.92,1509.20 1730.29,1566.92 1893.56,1758.20 1896.94,1762.51 1902.10,1769.14"/>
    <poly id="166974549" type="unknown" color="51,128,255" fill="0" layer="-1.00" shape="511.03,1645.65 506.51,1637.85 501.77,1632.35 494.18,1626.69 482.20,1620.57 477.34,1619.09 470.53,1617.77"/>
    <poly id="167410472" type="water" color="181,209,209" fill="0" layer="-10.00" shape="454.49,687.41 462.00,735.92 465.82,754.06 474.34,777.31 556.88,932.29 563.24,941.36 575.11,954.08 585.87,961.32 601.06,968.20 636.72,978.67"/>
    <poly id="167410475" type="water" color="181,209,209" fill="0" layer="-10.00" shape="1095.08,1341.71 1167.30,1437.43 1218.98,1501.75 1252.63,1528.21 1305.59,1595.07 1418.29,1742.51"/>
    <poly id="167410477" type="unknown" color="51,128,255" fill="0" layer="-1.00" shape="887.57,1137.70 863.74,1125.66 838.19,1110.65 822.04,1100.35 816.31,1095.21 746.10,1036.81 726.47,1022.22 700.88,1010.09 693.31,1004.99 680.04,1001.42 675.43,1000.32 640.50,988.06"/>
    <poly id="167410479" type="unknown" color="51,128,255" fill="0" layer="-1.00" shape="887.57,1137.70 915.77,1160.69 985.24,1219.49 1005.35,1239.90 1023.46,1261.20 1062.43,1309.05 1065.96,1313.74 1068.00,1318.18 1076.12,1334.52"/>
    <poly id="167410483" type="water" color="181,209,209" fill="0" layer="-10.00" shape="823.86,1088.73 979.59,1208.66 1019.79,1247.93 1095.08,1341.71"/>
    <poly id="172592906" type="unknown" color="51,128,255" fill="0" layer="-1.00" shape="607.34,1051.69 602.32,1054.16 597.07,1057.05 592.17,1063.12 587.42,1070.98 557.25,1212.44 556.16,1217.52 551.61,1238.86 532.30,1329.40 527.72,1350.84 522.39,1375.87 521.02,1382.28 518.03,1396.31"/>
    <poly id="172592911" type="unknown" color="51,128,255" fill="0" layer="-1.00" shape="1635.35,1118.71 1498.53,999.93 1385.84,902.10 1307.41,834.00"/>
    <poly id="172592914" type="unknown" color="51,128,255" fill="0" layer="-1.00" shape="1567.44,962.62 1575.26,832.50 1576.41,813.24 1580.03,784.03 1593.76,659.02 1637.93,397.55"/>
    <poly id="172592918" type="unknown" color="51,128,255" fill="0" layer="-1.00" shape="965.93,1590.28 962.43,1590.89 958.70,1590.66 954.87,1588.62 952.46,1586.58 858.62,1423.00 856.33,1419.24 846.32,1402.67"/>
    <poly id="172592923" type="unknown" color="51,128,255" fill="0" layer="-1.00" shape="565.97,997.83 558.90,998.51 476.18,1059.75 437.57,1105.62 380.96,1194.29 327.47,1274.75"/>
    <poly id="172592926" type="unknown" color="51,128,255" fill="0" layer="-1.00" shape="511.03,1645.65 491.04,1632.61 481.07,1629.55 476.07,1628.16 468.46,1626.03"/>
    <poly id="172592927" type="unknown" color="51,128,255" fill="0" layer="-1.00" shape="753.91,650.92 724.78,747.46 667.27,887.09 649.13,953.99 646.95,959.32 644.27,971.84 640.50,988.06"/>
    <poly id="180519039" type="forest" color="140,196,107" fill="1" layer="-11.00" shape="1180.41,965.20 1188.42,965.65 1197.54,968.28 1211.68,977.41 1237.16,990.51 1269.76,979.72 1274.13,975.83 1276.80,969.23 1278.75,948.97 1257.37,937.12 1228.67,925.77 1211.47,913.94 1194.51,907.22 1149.24,892.69 1132.48,890.53 1111.32,895.05 1103.79,902.87 1103.52,907.52 1105.43,914.94 1110.08,920.51 1115.11,922.53 1137.28,928.54 1146.53,935.14 1156.13,952.24 1163.09,958.18 1176.60,966.62 1180.41,965.20"/>
    <poly id="181765438" type="unknown" color="51,128,255" fill="0" layer="-1.00" shape="594.22,1427.30 663.76,1363.06"/>
    <poly id="181765444" type="unknown" color="51,128,255" fill="0" layer="-1.00" shape="638.65,1334.79 569.57,1398.00"/>
    <poly id="189238633" type="amenity" color="237,199,199" fill="1" layer="2.00" shape="1178.49,1682.66 1168.42,1666.25 1229.41,1624.92 1236.25,1636.08 1236.30,1643.48 1178.49,1682.66"/>
    <poly id="189238633#1" type="building" color="255,230,230" fill="1" layer="2.00" shape="1178.49,1682.66 1168.42,1666.25 1229.41,1624.92 1236.25,1636.08 1236.30,1643.48 1178.49,1682.66"/>
    <poly id="189754956" type="unknown" color="51,128,255" fill="0" layer="-1.00" shape="746.67,1731.31 682.94,1587.19"/>
    <poly id="189755242" type="amenity" color="237,199,199" fill="1" layer="2.00" shape="786.47,1435.15 805.87,1419.20 810.45,1415.44 825.97,1402.68 770.49,1334.34 763.09,1341.47 755.25,1349.02 749.27,1354.84 738.65,1363.99 729.38,1371.49 750.91,1395.49 786.47,1435.15"/>
    <poly id="189755242#1" type="building" color="255,230,230" fill="1" layer="2.00" shape="786.47,1435.15 805.87,1419.20 810.45,1415.44 825.97,1402.68 770.49,1334.34 763.09,1341.47 755.25,1349.02 749.27,1354.84 738.65,1363.99 729.38,1371.49 750.91,1395.49 786.47,1435.15"/>
    <poly id="189757763" type="tourism" color="207,245,201" fill="1" layer="-10.00" shape="638.26,1338.66 660.02,1362.75 594.68,1422.64 574.58,1397.98 638.26,1338.66"/>
    <poly id="192348045" type="unknown" color="51,128,255" fill="0" layer="-1.00" shape="846.32,1402.67 743.29,1281.32 693.85,1199.32 629.50,1066.92 623.65,1059.52 618.58,1054.74 613.24,1052.36 607.34,1051.69"/>
    <poly id="193377319" type="building" color="255,230,230" fill="1" layer="2.00" shape="1771.86,1689.55 1741.74,1654.64 1763.18,1636.36 1793.28,1671.26 1771.86,1689.55"/>
    <poly id="193614247" type="leisure" color="207,245,201" fill="1" layer="0.00" shape="1191.09,1209.03 1167.91,1223.48 1176.39,1236.93 1199.58,1222.48 1191.09,1209.03"/>
    <poly id="193614247#1" type="sport" color="79,230,125" fill="1" layer="2.00" shape="1191.09,1209.03 1167.91,1223.48 1176.39,1236.93 1199.58,1222.48 1191.09,1209.03"/>
    <poly id="194779724" type="unknown" color="51,128,255" fill="1" layer="-1.00" shape="507.40,1662.04 506.81,1658.49 503.14,1651.15 497.82,1644.09 490.48,1638.85 472.65,1632.09 460.33,1695.63 462.14,1699.53 506.33,1664.79 507.40,1662.04"/>
    <poly id="215996541" type="unknown" color="51,128,255" fill="0" layer="-1.00" shape="1842.86,1991.69 1763.40,1968.77"/>
    <poly id="215996543" type="unknown" color="51,128,255" fill="0" layer="-1.00" shape="1687.82,1997.14 1684.05,1983.55 1679.05,1974.12 1671.74,1965.68 1661.70,1956.88 1635.27,1937.38 1623.63,1924.95"/>
    <poly id="215997909" type="unknown" color="51,128,255" fill="0" layer="-1.00" shape="1658.49,1971.93 1647.34,1967.49 1626.18,1962.36 1603.59,1957.86 1557.66,1952.15"/>
    <poly id="215997911" type="unknown" color="51,128,255" fill="0" layer="-1.00" shape="1763.40,1968.77 1678.61,1947.06 1651.19,1937.47 1623.63,1924.95 1556.57,1878.10 1486.99,1829.09"/>
    <poly id="219158569" type="water" color="181,209,209" fill="0" layer="-10.00" shape="652.43,1584.99 655.30,1635.79"/>
    <poly id="219158570" type="water" color="181,209,209" fill="0" layer="-10.00" shape="729.10,1928.20 749.29,1946.83"/>
    <poly id="219158571" type="water" color="181,209,209" fill="0" layer="-10.00" shape="749.29,1946.83 761.38,1956.32 782.96,1966.46 798.71,1971.88 818.84,1975.33 901.47,1981.72"/>
    <poly id="219158572" type="water" color="181,209,209" fill="0" layer="-10.00" shape="655.30,1635.79 657.02,1722.22"/>
    <poly id="227286897" type="unknown" color="51,128,255" fill="0" layer="-1.00" shape="1039.38,1988.27 1067.34,1986.85 1109.60,1980.37 1164.99,1968.82 1201.66,1963.07 1258.66,1955.28 1388.16,1936.06 1404.46,1933.95 1503.96,1921.32 1591.65,1915.04"/>
    <poly id="227289437" type="unknown" color="51,128,255" fill="0" layer="-1.00" shape="1468.90,1943.99 1287.95,1969.37 1161.10,1981.29 1088.91,1992.04 1047.12,1996.76 988.43,1999.47"/>
    <poly id="227337447" type="unknown" color="51,128,255" fill="0" layer="-1.00" shape="1404.46,1933.95 1431.46,1923.36 1444.34,1919.30 1452.38,1914.44 1460.63,1906.76 1466.02,1898.21 1469.73,1888.28 1471.54,1879.42 1471.41,1869.29 1468.66,1857.72 1463.33,1845.27 1453.36,1826.44 1443.90,1812.60 1427.19,1784.61"/>
    <poly id="228169642" type="unknown" color="51,128,255" fill="0" layer="-1.00" shape="1762.03,908.77 1749.65,903.11 1711.90,885.99 1709.98,884.75 1708.16,880.98 1707.81,878.90 1709.72,873.50 1712.76,866.67 1714.16,865.12 1716.22,863.98 1720.62,863.66 1762.47,880.83 1775.78,886.60"/>
    <poly id="228169665" type="parking" color="184,184,179" fill="1" layer="-2.00" shape="1710.77,878.61 1704.51,892.85 1745.11,910.50 1752.68,896.99 1710.77,878.61"/>
    <poly id="243263400" type="unknown" color="51,128,255" fill="0" layer="-1.00" shape="1717.75,1946.53 1721.37,1933.17 1724.60,1922.90 1727.50,1916.57"/>
    <poly id="253130304" type="unknown" color="51,128,255" fill="0" layer="-1.00" shape="700.88,1010.09 695.24,1010.22 690.28,1012.90 687.09,1017.55 686.39,1023.12 688.32,1028.40"/>
    <poly id="259078763" type="building" color="255,230,230" fill="1" layer="2.00" shape="1478.68,1587.06 1451.18,1547.35 1441.00,1554.33 1468.51,1594.02 1478.68,1587.06"/>
    <poly id="259078764" type="building" color="255,230,230" fill="1" layer="2.00" shape="1467.19,1655.92 1532.13,1608.35 1516.59,1589.82 1452.86,1636.44 1467.19,1655.92"/>
    <poly id="259078765" type="building" color="255,230,230" fill="1" layer="2.00" shape="1389.76,1591.69 1460.71,1539.74 1444.83,1518.28 1430.30,1528.91 1434.92,1535.14 1408.65,1554.37 1394.77,1535.65 1383.07,1544.22 1396.94,1562.94 1378.48,1576.47 1389.76,1591.69"/>
    <poly id="259078766" type="amenity" color="237,199,199" fill="1" layer="2.00" shape="1582.21,1906.08 1569.97,1906.37 1568.92,1899.82 1563.44,1901.11 1559.10,1906.36 1531.56,1905.33 1514.06,1903.28 1502.46,1898.90 1493.99,1891.98 1490.90,1886.93 1489.96,1878.33 1491.96,1873.10 1497.41,1867.97 1503.85,1866.26 1514.86,1865.99 1530.99,1869.42 1579.77,1889.72 1594.23,1899.96 1592.79,1905.09 1582.21,1906.08"/>
    <poly id="259079571" type="building" color="255,230,230" fill="1" layer="2.00" shape="720.93,1596.77 709.09,1570.51 700.69,1574.26 712.54,1600.52 720.93,1596.77"/>
    <poly id="259079572" type="building" color="255,230,230" fill="1" layer="2.00" shape="772.76,1662.10 807.85,1643.24 802.14,1632.73 767.05,1651.59 772.76,1662.10"/>
    <poly id="259079573" type="building" color="255,230,230" fill="1" layer="2.00" shape="855.74,1632.08 839.61,1605.58 822.27,1616.01 838.41,1642.51 855.74,1632.08"/>
    <poly id="259079574" type="building" color="255,230,230" fill="1" layer="2.00" shape="1076.34,1422.84 1100.24,1403.82 1082.92,1380.57 1059.02,1399.59 1076.34,1422.84"/>
    <poly id="259079575" type="building" color="255,230,230" fill="1" layer="2.00" shape="1049.84,1463.76 1074.95,1447.37 1060.01,1424.74 1034.89,1441.14 1049.84,1463.76"/>
    <poly id="259079576" type="building" color="255,230,230" fill="1" layer="2.00" shape="734.78,1674.71 765.19,1659.13 755.50,1640.40 725.08,1655.99 734.78,1674.71"/>
    <poly id="259079577" type="building" color="255,230,230" fill="1" layer="2.00" shape="769.52,1647.43 799.63,1631.57 790.09,1613.65 759.98,1629.52 769.52,1647.43"/>
    <poly id="259079578" type="building" color="255,230,230" fill="1" layer="2.00" shape="876.22,1628.35 860.01,1601.92 850.24,1607.86 866.45,1634.29 876.22,1628.35"/>
    <poly id="259079579" type="building" color="255,230,230" fill="1" layer="2.00" shape="926.34,1430.36 987.15,1413.37 965.20,1384.87 917.30,1398.19 926.34,1430.36"/>
    <poly id="259079580" type="building" color="255,230,230" fill="1" layer="2.00" shape="761.68,1621.30 788.14,1606.29 782.03,1595.64 755.57,1610.65 761.68,1621.30"/>
    <poly id="259079581" type="building" color="255,230,230" fill="1" layer="2.00" shape="722.15,1648.42 757.53,1630.82 750.87,1617.60 715.50,1635.19 722.15,1648.42"/>
    <poly id="259079582" type="building" color="255,230,230" fill="1" layer="2.00" shape="1100.24,1403.82 1076.34,1422.84 1095.07,1446.13 1118.97,1427.11 1100.24,1403.82"/>
    <poly id="259079583" type="building" color="255,230,230" fill="1" layer="2.00" shape="1094.23,1454.78 1058.62,1478.32 1066.59,1490.24 1102.20,1466.70 1094.23,1454.78"/>
    <poly id="259079584" type="building" color="255,230,230" fill="1" layer="2.00" shape="751.96,1612.18 780.89,1595.70 772.71,1581.49 743.77,1597.97 751.96,1612.18"/>
    <poly id="259079585" type="building" color="255,230,230" fill="1" layer="2.00" shape="1118.26,1430.35 1099.00,1443.75 1115.71,1467.50 1134.97,1454.10 1118.26,1430.35"/>
    <poly id="259079586" type="building" color="255,230,230" fill="1" layer="2.00" shape="907.27,1434.83 926.34,1430.36 917.30,1398.19 892.52,1404.93 907.27,1434.83"/>
    <poly id="259079587" type="building" color="255,230,230" fill="1" layer="2.00" shape="1063.10,1392.56 1042.72,1361.50 1028.56,1370.69 1048.95,1401.75 1063.10,1392.56"/>
    <poly id="259079588" type="building" color="255,230,230" fill="1" layer="2.00" shape="921.29,1512.31 966.67,1492.74 958.69,1474.43 952.95,1476.95 913.31,1493.99 921.29,1512.31"/>
    <poly id="259079589" type="building" color="255,230,230" fill="1" layer="2.00" shape="947.20,1463.71 904.45,1482.08 910.20,1495.32 913.31,1493.99 952.95,1476.95 947.20,1463.71"/>
    <poly id="259079590" type="building" color="255,230,230" fill="1" layer="2.00" shape="730.86,1548.08 723.92,1551.17 735.19,1576.17 751.97,1568.69 738.93,1539.81 729.11,1544.19 730.86,1548.08"/>
    <poly id="259079591" type="building" color="255,230,230" fill="1" layer="2.00" shape="938.09,1461.68 978.10,1438.41 994.83,1428.67 989.69,1419.93 972.96,1429.66 967.79,1420.87 927.77,1444.15 938.09,1461.68"/>
    <poly id="259079864" type="building" color="255,230,230" fill="1" layer="2.00" shape="890.06,1460.50 914.57,1450.49 910.27,1440.07 885.76,1450.07 890.06,1460.50"/>
    <poly id="259079865" type="building" color="255,230,230" fill="1" layer="2.00" shape="892.52,1404.93 882.53,1409.69 896.30,1438.27 906.28,1433.51 892.52,1404.93"/>
    <poly id="259079866" type="building" color="255,230,230" fill="1" layer="2.00" shape="1037.22,1481.09 1018.24,1494.45 1022.75,1500.80 1041.73,1487.43 1037.22,1481.09"/>
    <poly id="259079867" type="building" color="255,230,230" fill="1" layer="2.00" shape="956.66,1574.37 984.68,1556.25 977.43,1545.15 949.40,1563.27 956.66,1574.37"/>
    <poly id="259079868" type="building" color="255,230,230" fill="1" layer="2.00" shape="1040.10,1520.45 1055.42,1511.30 1046.64,1496.76 1031.31,1505.90 1040.10,1520.45"/>
    <poly id="259079869" type="building" color="255,230,230" fill="1" layer="2.00" shape="998.43,1545.33 995.21,1539.98 990.81,1542.62 994.03,1547.96 998.43,1545.33"/>
    <poly id="259079870" type="building" color="255,230,230" fill="1" layer="2.00" shape="970.80,1483.59 1016.36,1454.37 1010.36,1445.12 964.80,1474.34 970.80,1483.59"/>
    <poly id="259079871" type="building" color="255,230,230" fill="1" layer="2.00" shape="1004.92,1520.54 995.68,1506.25 989.08,1510.47 998.31,1524.76 1004.92,1520.54"/>
    <poly id="259079872" type="building" color="255,230,230" fill="1" layer="2.00" shape="984.68,1556.25 990.56,1552.45 981.09,1537.97 975.21,1541.76 984.68,1556.25"/>
    <poly id="259079873" type="building" color="255,230,230" fill="1" layer="2.00" shape="931.89,1528.45 954.24,1518.88 949.34,1507.54 926.98,1517.12 931.89,1528.45"/>
    <poly id="259079874" type="building" color="255,230,230" fill="1" layer="2.00" shape="1008.89,1482.99 1014.76,1491.15 1033.14,1478.05 1027.27,1469.90 1008.89,1482.99"/>
    <poly id="259079875" type="building" color="255,230,230" fill="1" layer="2.00" shape="1040.10,1520.45 1028.63,1501.45 1015.91,1509.04 1027.37,1528.04 1040.10,1520.45"/>
    <poly id="259079876" type="building" color="255,230,230" fill="1" layer="2.00" shape="890.08,1435.60 876.99,1411.17 866.04,1416.98 879.14,1441.40 890.08,1435.60"/>
    <poly id="259079877" type="building" color="255,230,230" fill="1" layer="2.00" shape="1027.37,1528.04 1015.91,1509.04 1005.58,1515.22 1012.49,1526.67 1017.05,1534.22 1027.37,1528.04"/>
    <poly id="259079878" type="building" color="255,230,230" fill="1" layer="2.00" shape="1004.53,1541.69 999.97,1534.13 986.13,1511.21 980.03,1514.84 998.43,1545.33 1004.53,1541.69"/>
    <poly id="259079879" type="building" color="255,230,230" fill="1" layer="2.00" shape="904.14,1482.37 916.68,1477.26 914.89,1472.94 919.74,1470.96 915.78,1461.36 910.93,1463.34 909.85,1460.73 897.31,1465.85 904.14,1482.37"/>
    <poly id="259079880" type="building" color="255,230,230" fill="1" layer="2.00" shape="1017.05,1534.22 1012.49,1526.67 1009.72,1528.32 1006.89,1523.64 999.84,1527.84 1002.67,1532.53 999.97,1534.13 1004.53,1541.69 1017.05,1534.22"/>
    <poly id="259079881" type="building" color="255,230,230" fill="1" layer="2.00" shape="942.59,1546.43 963.22,1533.09 959.42,1527.29 951.73,1532.27 950.04,1529.71 941.24,1535.39 942.92,1537.96 938.80,1540.63 942.59,1546.43"/>
    <poly id="259080429" type="building" color="255,230,230" fill="1" layer="2.00" shape="699.95,1666.21 691.46,1645.54 683.55,1648.74 686.33,1655.52 675.50,1659.91 673.31,1654.57 663.52,1658.54 666.64,1678.55 677.40,1674.13 675.55,1669.60 689.75,1663.84 692.03,1669.42 699.95,1666.21"/>
    <poly id="259080430" type="building" color="255,230,230" fill="1" layer="2.00" shape="880.78,1518.54 888.73,1513.84 890.61,1516.99 901.28,1510.67 894.88,1499.97 884.21,1506.28 886.35,1509.86 878.41,1514.56 876.18,1510.85 869.79,1514.62 872.23,1518.71 870.50,1519.73 868.54,1516.46 861.84,1520.43 864.29,1524.53 857.60,1528.49 855.44,1524.86 844.38,1531.40 850.64,1541.86 861.70,1535.33 859.78,1532.13 866.46,1528.19 867.89,1530.56 874.60,1526.59 872.10,1522.41 873.83,1521.38 876.25,1525.43 882.64,1521.66 880.78,1518.54"/>
    <poly id="259080431" type="building" color="255,230,230" fill="1" layer="2.00" shape="686.45,1695.66 676.50,1700.39 679.93,1707.52 689.88,1702.79 686.45,1695.66"/>
    <poly id="259080432" type="building" color="255,230,230" fill="1" layer="2.00" shape="813.21,1598.62 827.84,1590.33 820.44,1577.40 805.80,1585.70 813.21,1598.62"/>
    <poly id="259080433" type="building" color="255,230,230" fill="1" layer="2.00" shape="916.98,1538.87 908.18,1524.16 899.39,1529.36 908.18,1544.07 916.98,1538.87"/>
    <poly id="259080434" type="building" color="255,230,230" fill="1" layer="2.00" shape="823.90,1514.69 800.94,1475.04 791.55,1483.74 813.45,1522.39 823.90,1514.69"/>
    <poly id="259080435" type="building" color="255,230,230" fill="1" layer="2.00" shape="584.16,1709.43 561.95,1673.42 569.84,1668.35 602.13,1698.68 584.16,1709.43"/>
    <poly id="259080436" type="building" color="255,230,230" fill="1" layer="2.00" shape="730.35,1571.95 722.66,1555.80 716.44,1558.73 724.14,1574.88 730.35,1571.95"/>
    <poly id="259080437" type="building" color="255,230,230" fill="1" layer="2.00" shape="695.96,1747.08 726.34,1728.58 721.65,1721.03 690.77,1735.01 695.96,1747.08"/>
    <poly id="259080438" type="building" color="255,230,230" fill="1" layer="2.00" shape="878.49,1561.63 869.68,1546.92 860.43,1552.39 869.24,1567.10 878.49,1561.63"/>
    <poly id="259080439" type="building" color="255,230,230" fill="1" layer="2.00" shape="1015.75,1366.75 1007.15,1372.45 1018.84,1389.87 1027.44,1384.17 1015.75,1366.75"/>
    <poly id="259080440" type="building" color="255,230,230" fill="1" layer="2.00" shape="557.06,1718.42 534.85,1673.06 550.42,1665.87 578.21,1716.83 557.06,1718.42"/>
    <poly id="259080441" type="building" color="255,230,230" fill="1" layer="2.00" shape="673.19,1693.49 683.15,1688.76 679.73,1681.67 669.78,1686.40 673.19,1693.49"/>
    <poly id="259080442" type="building" color="255,230,230" fill="1" layer="2.00" shape="908.18,1544.07 899.39,1529.36 889.57,1535.17 898.36,1549.89 908.18,1544.07"/>
    <poly id="259080443" type="building" color="255,230,230" fill="1" layer="2.00" shape="802.88,1470.69 818.89,1498.27 849.13,1467.91 831.92,1438.45 802.88,1470.69"/>
    <poly id="259080444" type="building" color="255,230,230" fill="1" layer="2.00" shape="605.09,1727.19 632.14,1725.72 631.47,1713.64 622.92,1714.09 623.25,1720.10 612.22,1720.70 611.87,1714.34 604.41,1714.75 605.09,1727.19"/>
    <poly id="259080445" type="building" color="255,230,230" fill="1" layer="2.00" shape="632.85,1742.02 606.06,1743.21 606.37,1749.97 633.15,1748.76 632.85,1742.02"/>
    <poly id="259080446" type="building" color="255,230,230" fill="1" layer="2.00" shape="901.49,1612.16 913.55,1605.03 895.19,1574.33 883.14,1581.47 901.49,1612.16"/>
    <poly id="259080447" type="building" color="255,230,230" fill="1" layer="2.00" shape="700.13,1717.76 719.50,1710.98 715.86,1700.74 696.51,1707.51 700.13,1717.76"/>
    <poly id="259080448" type="building" color="255,230,230" fill="1" layer="2.00" shape="690.68,1748.40 684.93,1737.29 679.51,1740.07 685.27,1751.18 690.68,1748.40"/>
    <poly id="259080449" type="building" color="255,230,230" fill="1" layer="2.00" shape="996.98,1396.38 1009.46,1387.43 994.52,1368.15 980.66,1373.90 996.98,1396.38"/>
    <poly id="259080450" type="building" color="255,230,230" fill="1" layer="2.00" shape="673.19,1693.49 676.50,1700.39 686.45,1695.66 683.15,1688.76 673.19,1693.49"/>
    <poly id="259080451" type="building" color="255,230,230" fill="1" layer="2.00" shape="898.36,1549.89 889.57,1535.17 879.56,1541.09 888.35,1555.81 898.36,1549.89"/>
    <poly id="259080452" type="building" color="255,230,230" fill="1" layer="2.00" shape="888.35,1555.81 879.60,1541.16 869.74,1547.00 878.49,1561.63 888.35,1555.81"/>
    <poly id="259080453" type="building" color="255,230,230" fill="1" layer="2.00" shape="805.80,1585.70 820.44,1577.40 843.07,1564.58 836.95,1553.90 799.68,1575.03 805.80,1585.70"/>
    <poly id="259080454" type="building" color="255,230,230" fill="1" layer="2.00" shape="908.51,1572.31 926.19,1561.87 915.84,1544.56 898.12,1555.04 902.47,1562.32 914.72,1555.07 916.36,1557.82 904.16,1565.03 908.51,1572.31"/>
    <poly id="259080830" type="building" color="255,230,230" fill="1" layer="2.00" shape="591.61,1882.97 581.85,1887.80 585.34,1894.78 579.37,1897.73 585.44,1909.86 592.12,1906.55 596.15,1914.58 605.84,1909.77 625.24,1948.48 636.47,1942.92 617.49,1905.05 622.31,1902.67 607.56,1873.23 602.32,1875.83 584.79,1840.85 573.34,1846.52 591.61,1882.97"/>
    <poly id="259080831" type="building" color="255,230,230" fill="1" layer="2.00" shape="543.30,1829.52 558.46,1822.05 543.21,1791.42 528.05,1798.88 543.30,1829.52"/>
    <poly id="259080832" type="landuse" color="194,194,130" fill="1" layer="-4.00" shape="682.16,1877.41 674.16,1854.03 666.41,1829.56 669.72,1879.42 674.28,1927.06 678.89,1942.02 683.77,1954.03 688.56,1961.19 694.71,1967.21 700.96,1970.20 706.50,1970.27 712.25,1967.72 716.61,1964.49 719.99,1959.47 721.21,1952.88 721.06,1947.83 718.55,1943.01 708.35,1930.61 701.25,1920.67 694.74,1907.88 682.16,1877.41"/>
    <poly id="259080837" type="landuse" color="194,194,130" fill="1" layer="-4.00" shape="728.53,1949.15 727.39,1956.94 724.88,1964.36 720.27,1970.42 715.76,1974.02 710.44,1976.54 704.58,1977.73 698.35,1976.85 692.66,1974.32 687.25,1970.42 678.87,1960.53 682.26,1967.60 687.18,1974.29 692.55,1980.11 699.52,1985.60 714.10,1984.00 730.41,1983.30 754.43,1984.72 781.48,1987.73 797.08,1987.43 781.33,1983.23 769.70,1979.38 757.66,1973.58 747.58,1966.48 737.32,1958.19 728.53,1949.15"/>
    <poly id="259081715" type="building" color="255,230,230" fill="1" layer="2.00" shape="1310.55,1520.84 1303.05,1525.93 1304.01,1527.34 1300.24,1529.90 1303.05,1534.00 1300.77,1535.55 1304.74,1541.33 1307.03,1539.77 1308.61,1542.07 1320.75,1533.80 1313.80,1523.71 1312.93,1524.30 1310.55,1520.84"/>
    <poly id="259081716" type="building" color="255,230,230" fill="1" layer="2.00" shape="1519.63,1559.96 1552.68,1529.82 1542.19,1518.44 1509.13,1548.58 1519.63,1559.96"/>
    <poly id="259081717" type="building" color="255,230,230" fill="1" layer="2.00" shape="1571.84,1588.11 1553.15,1567.85 1539.30,1580.48 1557.99,1600.74 1571.84,1588.11"/>
    <poly id="259081718" type="building" color="255,230,230" fill="1" layer="2.00" shape="1617.66,1565.60 1609.78,1572.78 1625.31,1589.63 1633.19,1582.44 1617.66,1565.60"/>
    <poly id="259081719" type="building" color="255,230,230" fill="1" layer="2.00" shape="1578.68,1579.57 1595.00,1564.69 1582.73,1551.39 1566.42,1566.27 1578.68,1579.57"/>
    <poly id="259081720" type="building" color="255,230,230" fill="1" layer="2.00" shape="1218.48,1601.79 1195.63,1617.08 1209.17,1637.07 1232.02,1621.79 1218.48,1601.79"/>
    <poly id="259081721" type="building" color="255,230,230" fill="1" layer="2.00" shape="1615.78,1547.40 1577.71,1506.11 1567.15,1515.73 1605.23,1557.01 1615.78,1547.40"/>
    <poly id="259081722" type="building" color="255,230,230" fill="1" layer="2.00" shape="1427.28,1732.10 1442.08,1721.11 1431.49,1706.99 1416.67,1717.98 1427.28,1732.10"/>
    <poly id="259081723" type="building" color="255,230,230" fill="1" layer="2.00" shape="1605.16,1557.33 1583.06,1533.38 1574.54,1541.16 1596.63,1565.11 1605.16,1557.33"/>