<?xml version="1.0" encoding="UTF-8"?>

<!-- generated on Seg 05 Set 2016 19:39:08 BRT by Netedit Version 0.26.0
<?xml version="1.0" encoding="UTF-8"?>

<configuration xmlns:xsi="http://www.w3.org/2001/XMLSchema-instance" xsi:noNamespaceSchemaLocation="http://sumo.dlr.de/xsd/netedit.exeConfiguration.xsd">

    <input>
        <sumo-net-file value="/home/lauro/Desktop/WAVE/veins-master/cenarios/ipanema/ipanema.net.xml"/>
    </input>

    <output>
        <output-file value="/home/lauro/Desktop/WAVE/veins-master/cenarios/ipanema/ipanema.net.xml"/>
        <output.street-names value="true"/>
    </output>

    <processing>
        <no-turnarounds value="true"/>
        <offset.disable-normalization value="true"/>
        <lefthand value="false"/>
        <junctions.corner-detail value="0"/>
    </processing>

</configuration>
-->

<net version="0.25" xmlns:xsi="http://www.w3.org/2001/XMLSchema-instance" xsi:noNamespaceSchemaLocation="http://sumo.dlr.de/xsd/net_file.xsd">

    <location netOffset="-682131.96,2543399.06" convBoundary="0.00,0.00,4099.69,2235.83" origBoundary="-43.233351,-22.990499,-43.172872,-22.950363" projParameter="+proj=utm +zone=23 +ellps=WGS84 +datum=WGS84 +units=m +no_defs"/>

    <edge id=":1108187466_0" function="internal">
        <lane id=":1108187466_0_0" index="0" disallow="tram rail_urban rail rail_electric bicycle pedestrian ship" speed="27.78" length="0.10" shape="4083.43,1964.28 4083.43,1964.29"/>
        <lane id=":1108187466_0_1" index="1" disallow="tram rail_urban rail rail_electric bicycle pedestrian ship" speed="27.78" length="0.10" shape="4085.67,1961.86 4085.67,1961.86"/>
        <lane id=":1108187466_0_2" index="2" disallow="tram rail_urban rail rail_electric bicycle pedestrian ship" speed="27.78" length="0.10" shape="4087.91,1959.44 4087.91,1959.44"/>
    </edge>
    <edge id=":1108187736_0" function="internal">
        <lane id=":1108187736_0_0" index="0" disallow="tram rail_urban rail rail_electric bicycle pedestrian ship" speed="27.78" length="0.10" shape="3977.58,1866.72 3977.58,1866.73"/>
        <lane id=":1108187736_0_1" index="1" disallow="tram rail_urban rail rail_electric bicycle pedestrian ship" speed="27.78" length="0.10" shape="3979.82,1864.30 3979.82,1864.30"/>
        <lane id=":1108187736_0_2" index="2" disallow="tram rail_urban rail rail_electric bicycle pedestrian ship" speed="27.78" length="0.10" shape="3982.06,1861.88 3982.06,1861.88"/>
    </edge>
    <edge id=":1108247089_0" function="internal">
        <lane id=":1108247089_0_0" index="0" disallow="tram rail_urban rail rail_electric bicycle pedestrian ship" speed="27.78" length="0.14" shape="3502.33,1120.14 3502.26,1119.92"/>
        <lane id=":1108247089_0_1" index="1" disallow="tram rail_urban rail rail_electric bicycle pedestrian ship" speed="27.78" length="0.14" shape="3505.45,1119.06 3505.45,1119.06"/>
        <lane id=":1108247089_0_2" index="2" disallow="tram rail_urban rail rail_electric bicycle pedestrian ship" speed="27.78" length="0.14" shape="3508.61,1118.12 3508.60,1118.07"/>
    </edge>
    <edge id=":1108247103_0" function="internal">
        <lane id=":1108247103_0_0" index="0" disallow="tram rail_urban rail rail_electric ship" speed="20.84" length="4.94" shape="3414.35,748.14 3413.99,746.85 3413.29,745.96 3412.28,745.47 3410.93,745.37"/>
    </edge>
    <edge id=":1108247103_1" function="internal">
        <lane id=":1108247103_1_0" index="0" disallow="tram rail_urban rail rail_electric bicycle pedestrian ship" speed="27.78" length="5.60" shape="3414.35,748.14 3413.91,742.15"/>
        <lane id=":1108247103_1_1" index="1" disallow="tram rail_urban rail rail_electric bicycle pedestrian ship" speed="27.78" length="5.60" shape="3417.62,747.69 3417.21,742.11"/>
        <lane id=":1108247103_1_2" index="2" disallow="tram rail_urban rail rail_electric bicycle pedestrian ship" speed="27.78" length="5.60" shape="3420.89,747.25 3420.51,742.06"/>
    </edge>
    <edge id=":1108247142_0" function="internal">
        <lane id=":1108247142_0_0" index="0" disallow="tram rail_urban rail rail_electric bicycle pedestrian ship" speed="27.78" length="0.62" shape="3700.31,1525.74 3699.77,1524.86"/>
        <lane id=":1108247142_0_1" index="1" disallow="tram rail_urban rail rail_electric bicycle pedestrian ship" speed="27.78" length="0.62" shape="3703.01,1523.84 3702.68,1523.31"/>
        <lane id=":1108247142_0_2" index="2" disallow="tram rail_urban rail rail_electric bicycle pedestrian ship" speed="27.78" length="0.62" shape="3705.71,1521.94 3705.60,1521.77"/>
    </edge>
    <edge id=":1108247190_0" function="internal">
        <lane id=":1108247190_0_0" index="0" disallow="tram rail_urban rail rail_electric bicycle pedestrian ship" speed="19.44" length="0.15" shape="3529.93,1110.80 3530.01,1111.02"/>
        <lane id=":1108247190_0_1" index="1" disallow="tram rail_urban rail rail_electric bicycle pedestrian ship" speed="19.44" length="0.15" shape="3526.87,1112.04 3526.87,1112.04"/>
        <lane id=":1108247190_0_2" index="2" disallow="tram rail_urban rail rail_electric bicycle pedestrian ship" speed="19.44" length="0.15" shape="3523.76,1113.15 3523.78,1113.19"/>
    </edge>
    <edge id=":1108247227_0" function="internal">
        <lane id=":1108247227_0_0" index="0" disallow="tram rail_urban rail rail_electric bicycle pedestrian ship" speed="19.44" length="0.10" shape="3856.86,1686.82 3856.84,1686.79"/>
        <lane id=":1108247227_0_1" index="1" disallow="tram rail_urban rail rail_electric bicycle pedestrian ship" speed="19.44" length="0.10" shape="3854.26,1688.85 3854.26,1688.85"/>
        <lane id=":1108247227_0_2" index="2" disallow="tram rail_urban rail rail_electric bicycle pedestrian ship" speed="19.44" length="0.10" shape="3851.66,1690.88 3851.68,1690.91"/>
    </edge>
    <edge id=":1108247234_0" function="internal">
        <lane id=":1108247234_0_0" index="0" disallow="tram rail_urban rail rail_electric bicycle pedestrian ship" speed="27.78" length="0.14" shape="3512.74,1150.81 3512.72,1150.76"/>
        <lane id=":1108247234_0_1" index="1" disallow="tram rail_urban rail rail_electric bicycle pedestrian ship" speed="27.78" length="0.14" shape="3515.77,1149.50 3515.77,1149.50"/>
        <lane id=":1108247234_0_2" index="2" disallow="tram rail_urban rail rail_electric bicycle pedestrian ship" speed="27.78" length="0.14" shape="3518.86,1148.32 3518.77,1148.12"/>
    </edge>
    <edge id=":1108247251_0" function="internal">
        <lane id=":1108247251_0_0" index="0" disallow="tram rail_urban rail rail_electric bicycle pedestrian ship" speed="27.78" length="0.10" shape="3860.63,1738.43 3860.63,1738.43"/>
        <lane id=":1108247251_0_1" index="1" disallow="tram rail_urban rail rail_electric bicycle pedestrian ship" speed="27.78" length="0.10" shape="3863.09,1736.23 3863.09,1736.23"/>
        <lane id=":1108247251_0_2" index="2" disallow="tram rail_urban rail rail_electric bicycle pedestrian ship" speed="27.78" length="0.10" shape="3865.55,1734.03 3865.55,1734.03"/>
    </edge>
    <edge id=":1108247302_0" function="internal">
        <lane id=":1108247302_0_0" index="0" disallow="tram rail_urban rail rail_electric bicycle pedestrian ship" speed="27.78" length="0.10" shape="3834.18,1709.00 3834.17,1708.99"/>
        <lane id=":1108247302_0_1" index="1" disallow="tram rail_urban rail rail_electric bicycle pedestrian ship" speed="27.78" length="0.10" shape="3836.61,1706.77 3836.61,1706.77"/>
        <lane id=":1108247302_0_2" index="2" disallow="tram rail_urban rail rail_electric bicycle pedestrian ship" speed="27.78" length="0.10" shape="3839.04,1704.54 3839.05,1704.55"/>
    </edge>
    <edge id=":1108254486_0" function="internal">
        <lane id=":1108254486_0_0" index="0" disallow="tram rail_urban rail rail_electric bicycle pedestrian ship" speed="27.78" length="0.10" shape="3383.30,196.86 3383.30,196.86"/>
        <lane id=":1108254486_0_1" index="1" disallow="tram rail_urban rail rail_electric bicycle pedestrian ship" speed="27.78" length="0.10" shape="3382.48,200.06 3382.48,200.06"/>
    </edge>
    <edge id=":1108254495_0" function="internal">
        <lane id=":1108254495_0_0" index="0" disallow="tram rail_urban rail rail_electric ship" speed="16.67" length="0.10" shape="3311.31,192.27 3311.31,192.27"/>
        <lane id=":1108254495_0_1" index="1" disallow="tram rail_urban rail rail_electric ship" speed="16.67" length="0.10" shape="3314.49,193.14 3314.49,193.15"/>
    </edge>
    <edge id=":1108276005_0" function="internal">
        <lane id=":1108276005_0_0" index="0" disallow="tram rail_urban rail rail_electric bicycle pedestrian ship" speed="27.78" length="0.10" shape="3302.14,297.11 3302.14,297.11"/>
        <lane id=":1108276005_0_1" index="1" disallow="tram rail_urban rail rail_electric bicycle pedestrian ship" speed="27.78" length="0.10" shape="3302.98,293.93 3302.98,293.93"/>
    </edge>
    <edge id=":1108276007_0" function="internal">
        <lane id=":1108276007_0_0" index="0" disallow="tram rail_urban rail rail_electric bicycle pedestrian ship" speed="27.78" length="0.12" shape="3448.32,450.52 3448.33,450.47"/>
        <lane id=":1108276007_0_1" index="1" disallow="tram rail_urban rail rail_electric bicycle pedestrian ship" speed="27.78" length="0.12" shape="3451.50,451.39 3451.50,451.39"/>
        <lane id=":1108276007_0_2" index="2" disallow="tram rail_urban rail rail_electric bicycle pedestrian ship" speed="27.78" length="0.12" shape="3454.65,452.37 3454.70,452.21"/>
    </edge>
    <edge id=":1108276011_0" function="internal">
        <lane id=":1108276011_0_0" index="0" disallow="tram rail_urban rail rail_electric ship" speed="16.67" length="0.10" shape="3251.09,400.65 3251.09,400.65"/>
        <lane id=":1108276011_0_1" index="1" disallow="tram rail_urban rail rail_electric ship" speed="16.67" length="0.10" shape="3254.28,401.49 3254.28,401.49"/>
        <lane id=":1108276011_0_2" index="2" disallow="tram rail_urban rail rail_electric ship" speed="16.67" length="0.10" shape="3257.48,402.33 3257.48,402.33"/>
        <lane id=":1108276011_0_3" index="3" disallow="tram rail_urban rail rail_electric ship" speed="16.67" length="0.10" shape="3260.67,403.17 3260.67,403.17"/>
    </edge>
    <edge id=":1108276045_0" function="internal">
        <lane id=":1108276045_0_0" index="0" disallow="tram rail_urban rail rail_electric bicycle pedestrian ship" speed="25.00" length="8.70" shape="3462.60,436.50 3461.15,434.75 3460.31,432.85 3460.08,430.78 3460.46,428.55"/>
    </edge>
    <edge id=":1108276045_1" function="internal">
        <lane id=":1108276045_1_0" index="0" disallow="tram rail_urban rail rail_electric bicycle pedestrian ship" speed="27.78" length="8.73" shape="3454.57,435.86 3457.29,427.61"/>
        <lane id=":1108276045_1_1" index="1" disallow="tram rail_urban rail rail_electric bicycle pedestrian ship" speed="27.78" length="8.73" shape="3457.71,436.88 3460.46,428.55"/>
    </edge>
    <edge id=":1108276065_0" function="internal">
        <lane id=":1108276065_0_0" index="0" disallow="tram rail_urban rail rail_electric bicycle pedestrian ship" speed="27.78" length="0.10" shape="3475.27,454.92 3475.27,454.93"/>
        <lane id=":1108276065_0_1" index="1" disallow="tram rail_urban rail rail_electric bicycle pedestrian ship" speed="27.78" length="0.10" shape="3472.11,453.96 3472.11,453.95"/>
    </edge>
    <edge id=":1108276069_0" function="internal">
        <lane id=":1108276069_0_0" index="0" disallow="tram rail_urban rail rail_electric bicycle pedestrian ship" speed="27.78" length="7.59" shape="3480.80,436.87 3478.59,444.11"/>
        <lane id=":1108276069_0_1" index="1" disallow="tram rail_urban rail rail_electric bicycle pedestrian ship" speed="27.78" length="7.59" shape="3477.65,435.87 3475.43,443.14"/>
    </edge>
    <edge id=":1108276069_2" function="internal">
        <lane id=":1108276069_2_0" index="0" disallow="tram rail_urban rail rail_electric bicycle pedestrian ship" speed="25.00" length="7.64" shape="3477.65,435.87 3476.90,437.33 3475.67,438.54 3473.96,439.50 3471.76,440.21"/>
    </edge>
    <edge id=":1108276076_0" function="internal">
        <lane id=":1108276076_0_0" index="0" disallow="tram rail_urban rail rail_electric ship" speed="16.67" length="0.10" shape="3280.54,304.88 3280.54,304.88"/>
        <lane id=":1108276076_0_1" index="1" disallow="tram rail_urban rail rail_electric ship" speed="16.67" length="0.10" shape="3283.72,305.75 3283.72,305.76"/>
    </edge>
    <edge id=":1108276117_0" function="internal">
        <lane id=":1108276117_0_0" index="0" disallow="tram rail_urban rail rail_electric bicycle pedestrian ship" speed="27.78" length="0.10" shape="3268.92,288.28 3268.92,288.28"/>
        <lane id=":1108276117_0_1" index="1" disallow="tram rail_urban rail rail_electric bicycle pedestrian ship" speed="27.78" length="0.10" shape="3269.76,285.10 3269.76,285.10"/>
    </edge>
    <edge id=":1159670387_0" function="internal">
        <lane id=":1159670387_0_0" index="0" disallow="tram rail_urban rail rail_electric bicycle pedestrian ship" speed="27.78" length="5.01" shape="2043.57,1013.91 2038.95,1012.25"/>
        <lane id=":1159670387_0_1" index="1" disallow="tram rail_urban rail rail_electric bicycle pedestrian ship" speed="27.78" length="5.01" shape="2044.58,1010.77 2039.86,1009.08"/>
        <lane id=":1159670387_0_2" index="2" disallow="tram rail_urban rail rail_electric bicycle pedestrian ship" speed="27.78" length="5.01" shape="2045.58,1007.63 2040.78,1005.91"/>
    </edge>
    <edge id=":1159670387_3" function="internal">
        <lane id=":1159670387_3_0" index="0" disallow="tram rail_urban rail rail_electric bicycle pedestrian ship" speed="25.00" length="6.63" shape="2045.44,1003.40 2039.86,1009.08"/>
        <lane id=":1159670387_3_1" index="1" disallow="tram rail_urban rail rail_electric bicycle pedestrian ship" speed="25.00" length="6.63" shape="2045.44,1003.40 2040.78,1005.91"/>
    </edge>
    <edge id=":1162636187_0" function="internal">
        <lane id=":1162636187_0_0" index="0" disallow="tram rail_urban rail rail_electric ship" speed="16.67" length="0.10" shape="3522.25,1590.33 3522.25,1590.33"/>
        <lane id=":1162636187_0_1" index="1" disallow="tram rail_urban rail rail_electric ship" speed="16.67" length="0.10" shape="3519.44,1592.06 3519.44,1592.06"/>
        <lane id=":1162636187_0_2" index="2" disallow="tram rail_urban rail rail_electric ship" speed="16.67" length="0.10" shape="3516.64,1593.81 3516.64,1593.80"/>
        <lane id=":1162636187_0_3" index="3" disallow="tram rail_urban rail rail_electric ship" speed="16.67" length="0.10" shape="3513.84,1595.56 3513.83,1595.53"/>
    </edge>
    <edge id=":1162636198_0" function="internal">
        <lane id=":1162636198_0_0" index="0" disallow="tram rail_urban rail rail_electric ship" speed="16.67" length="0.14" shape="3540.88,1620.04 3540.94,1620.13"/>
        <lane id=":1162636198_0_1" index="1" disallow="tram rail_urban rail rail_electric ship" speed="16.67" length="0.14" shape="3538.10,1621.81 3538.11,1621.82"/>
        <lane id=":1162636198_0_2" index="2" disallow="tram rail_urban rail rail_electric ship" speed="16.67" length="0.14" shape="3535.31,1623.57 3535.28,1623.52"/>
        <lane id=":1162636198_0_3" index="3" disallow="tram rail_urban rail rail_electric ship" speed="16.67" length="0.14" shape="3532.42,1625.17 3532.55,1625.39"/>
    </edge>
    <edge id=":1162636204_0" function="internal">
        <lane id=":1162636204_0_0" index="0" disallow="tram rail_urban rail rail_electric ship" speed="16.67" length="0.75" shape="3419.55,1412.42 3419.62,1412.59"/>
        <lane id=":1162636204_0_1" index="1" disallow="tram rail_urban rail rail_electric ship" speed="16.67" length="0.75" shape="3416.48,1413.63 3416.71,1414.14"/>
        <lane id=":1162636204_0_2" index="2" disallow="tram rail_urban rail rail_electric ship" speed="16.67" length="0.75" shape="3413.41,1414.85 3413.80,1415.70"/>
        <lane id=":1162636204_0_3" index="3" disallow="tram rail_urban rail rail_electric ship" speed="16.67" length="0.75" shape="3410.34,1416.06 3410.89,1417.25"/>
    </edge>
    <edge id=":1162636209_0" function="internal">
        <lane id=":1162636209_0_0" index="0" disallow="tram rail_urban rail rail_electric ship" speed="16.67" length="1.06" shape="3403.04,1370.56 3403.12,1370.80"/>
        <lane id=":1162636209_0_1" index="1" disallow="tram rail_urban rail rail_electric ship" speed="16.67" length="1.06" shape="3399.82,1371.26 3400.05,1372.02"/>
        <lane id=":1162636209_0_2" index="2" disallow="tram rail_urban rail rail_electric ship" speed="16.67" length="1.06" shape="3396.60,1371.96 3396.98,1373.23"/>
        <lane id=":1162636209_0_3" index="3" disallow="tram rail_urban rail rail_electric ship" speed="16.67" length="1.06" shape="3393.37,1372.67 3393.91,1374.44"/>
    </edge>
    <edge id=":1162636223_0" function="internal">
        <lane id=":1162636223_0_0" index="0" disallow="tram rail_urban rail rail_electric ship" speed="16.67" length="0.12" shape="3456.26,1481.14 3456.34,1481.28"/>
        <lane id=":1162636223_0_1" index="1" disallow="tram rail_urban rail rail_electric ship" speed="16.67" length="0.12" shape="3453.42,1482.82 3453.39,1482.78"/>
        <lane id=":1162636223_0_2" index="2" disallow="tram rail_urban rail rail_electric ship" speed="16.67" length="0.12" shape="3450.51,1484.39 3450.52,1484.40"/>
        <lane id=":1162636223_0_3" index="3" disallow="tram rail_urban rail rail_electric ship" speed="16.67" length="0.12" shape="3447.60,1485.95 3447.65,1486.03"/>
    </edge>
    <edge id=":1162640684_0" function="internal">
        <lane id=":1162640684_0_0" index="0" disallow="tram rail_urban rail rail_electric ship" speed="16.67" length="0.10" shape="3846.67,2028.22 3846.63,2028.18"/>
        <lane id=":1162640684_0_1" index="1" disallow="tram rail_urban rail rail_electric ship" speed="16.67" length="0.10" shape="3844.49,2030.69 3844.47,2030.68"/>
        <lane id=":1162640684_0_2" index="2" disallow="tram rail_urban rail rail_electric ship" speed="16.67" length="0.10" shape="3842.31,2033.17 3842.32,2033.18"/>
        <lane id=":1162640684_0_3" index="3" disallow="tram rail_urban rail rail_electric ship" speed="16.67" length="0.10" shape="3840.13,2035.64 3840.17,2035.68"/>
    </edge>
    <edge id=":1162640693_0" function="internal">
        <lane id=":1162640693_0_0" index="0" disallow="tram rail_urban rail rail_electric ship" speed="16.67" length="0.13" shape="3716.99,1892.92 3717.15,1893.09"/>
        <lane id=":1162640693_0_1" index="1" disallow="tram rail_urban rail rail_electric ship" speed="16.67" length="0.13" shape="3714.65,1895.25 3714.61,1895.21"/>
        <lane id=":1162640693_0_2" index="2" disallow="tram rail_urban rail rail_electric ship" speed="16.67" length="0.13" shape="3712.19,1897.45 3712.19,1897.45"/>
        <lane id=":1162640693_0_3" index="3" disallow="tram rail_urban rail rail_electric ship" speed="16.67" length="0.13" shape="3709.72,1899.64 3709.79,1899.72"/>
    </edge>
    <edge id=":1162640696_0" function="internal">
        <lane id=":1162640696_0_0" index="0" disallow="tram rail_urban rail rail_electric ship" speed="16.67" length="0.11" shape="3697.86,1868.66 3697.94,1868.77"/>
        <lane id=":1162640696_0_1" index="1" disallow="tram rail_urban rail rail_electric ship" speed="16.67" length="0.11" shape="3695.21,1870.63 3695.19,1870.60"/>
        <lane id=":1162640696_0_2" index="2" disallow="tram rail_urban rail rail_electric ship" speed="16.67" length="0.11" shape="3692.50,1872.50 3692.50,1872.51"/>
        <lane id=":1162640696_0_3" index="3" disallow="tram rail_urban rail rail_electric ship" speed="16.67" length="0.11" shape="3689.78,1874.37 3689.82,1874.44"/>
    </edge>
    <edge id=":1162640698_0" function="internal">
        <lane id=":1162640698_0_0" index="0" disallow="tram rail_urban rail rail_electric ship" speed="16.67" length="0.10" shape="3821.72,2003.87 3821.72,2003.87"/>
        <lane id=":1162640698_0_1" index="1" disallow="tram rail_urban rail rail_electric ship" speed="16.67" length="0.10" shape="3819.32,2006.14 3819.32,2006.14"/>
        <lane id=":1162640698_0_2" index="2" disallow="tram rail_urban rail rail_electric ship" speed="16.67" length="0.10" shape="3816.92,2008.40 3816.92,2008.40"/>
        <lane id=":1162640698_0_3" index="3" disallow="tram rail_urban rail rail_electric ship" speed="16.67" length="0.10" shape="3814.52,2010.67 3814.52,2010.67"/>
    </edge>
    <edge id=":1162645227_0" function="internal">
        <lane id=":1162645227_0_0" index="0" disallow="tram rail_urban rail rail_electric ship" speed="16.67" length="0.10" shape="3962.93,2128.40 3962.93,2128.40"/>
        <lane id=":1162645227_0_1" index="1" disallow="tram rail_urban rail rail_electric ship" speed="16.67" length="0.10" shape="3960.78,2130.90 3960.78,2130.90"/>
        <lane id=":1162645227_0_2" index="2" disallow="tram rail_urban rail rail_electric ship" speed="16.67" length="0.10" shape="3958.62,2133.40 3958.62,2133.40"/>
        <lane id=":1162645227_0_3" index="3" disallow="tram rail_urban rail rail_electric ship" speed="16.67" length="0.10" shape="3956.47,2135.90 3956.47,2135.90"/>
    </edge>
    <edge id=":1317975763_0" function="internal">
        <lane id=":1317975763_0_0" index="0" disallow="tram rail_urban rail rail_electric bicycle pedestrian ship" speed="27.78" length="0.10" shape="1444.05,888.87 1444.05,888.87"/>
        <lane id=":1317975763_0_1" index="1" disallow="tram rail_urban rail rail_electric bicycle pedestrian ship" speed="27.78" length="0.10" shape="1444.28,892.16 1444.28,892.16"/>
        <lane id=":1317975763_0_2" index="2" disallow="tram rail_urban rail rail_electric bicycle pedestrian ship" speed="27.78" length="0.10" shape="1444.51,895.45 1444.51,895.45"/>
    </edge>
    <edge id=":1317975772_0" function="internal">
        <lane id=":1317975772_0_0" index="0" disallow="tram rail_urban rail rail_electric bicycle pedestrian ship" speed="27.78" length="9.44" shape="1555.99,907.56 1546.61,908.12"/>
        <lane id=":1317975772_0_1" index="1" disallow="tram rail_urban rail rail_electric bicycle pedestrian ship" speed="27.78" length="9.44" shape="1555.81,904.26 1546.39,904.83"/>
        <lane id=":1317975772_0_2" index="2" disallow="tram rail_urban rail rail_electric bicycle pedestrian ship" speed="27.78" length="9.44" shape="1555.64,900.97 1546.18,901.54"/>
    </edge>
    <edge id=":1317975772_3" function="internal">
        <lane id=":1317975772_3_0" index="0" disallow="tram rail_urban rail rail_electric bicycle pedestrian ship" speed="25.00" length="7.86" shape="1555.64,900.97 1552.83,900.92 1550.80,900.45 1549.55,899.54 1549.09,898.19"/>
    </edge>
    <edge id=":1317975772_4" function="internal">
        <lane id=":1317975772_4_0" index="0" disallow="tram rail_urban rail rail_electric bicycle pedestrian ship" speed="25.00" length="9.07" shape="1552.38,898.03 1552.13,900.85 1551.04,902.92 1549.13,904.25 1546.39,904.83"/>
        <lane id=":1317975772_4_1" index="1" disallow="tram rail_urban rail rail_electric bicycle pedestrian ship" speed="25.00" length="9.07" shape="1552.38,898.03 1552.05,899.41 1550.91,900.45 1548.95,901.16 1546.18,901.54"/>
    </edge>
    <edge id=":1317975772_6" function="internal">
        <lane id=":1317975772_6_0" index="0" disallow="tram rail_urban rail rail_electric bicycle pedestrian ship" speed="22.22" length="4.82" shape="1552.38,898.03 1551.62,899.31 1550.82,899.76 1549.97,899.39 1549.09,898.19"/>
    </edge>
    <edge id=":1317975778_0" function="internal">
        <lane id=":1317975778_0_0" index="0" disallow="tram rail_urban rail rail_electric bicycle pedestrian ship" speed="25.00" length="9.15" shape="1548.70,890.36 1548.96,887.50 1550.05,885.41 1551.98,884.08 1554.74,883.52"/>
        <lane id=":1317975778_0_1" index="1" disallow="tram rail_urban rail rail_electric bicycle pedestrian ship" speed="25.00" length="9.15" shape="1548.70,890.36 1549.03,888.94 1550.18,887.88 1552.14,887.17 1554.93,886.81"/>
    </edge>
    <edge id=":1317975778_2" function="internal">
        <lane id=":1317975778_2_0" index="0" disallow="tram rail_urban rail rail_electric bicycle pedestrian ship" speed="22.22" length="4.82" shape="1548.70,890.36 1549.46,889.08 1550.27,888.63 1551.11,889.00 1552.00,890.20"/>
    </edge>
    <edge id=":1317975778_3" function="internal">
        <lane id=":1317975778_3_0" index="0" disallow="tram rail_urban rail rail_electric bicycle pedestrian ship" speed="27.78" length="9.63" shape="1544.87,880.89 1554.56,880.22"/>
        <lane id=":1317975778_3_1" index="1" disallow="tram rail_urban rail rail_electric bicycle pedestrian ship" speed="27.78" length="9.63" shape="1545.14,884.18 1554.74,883.52"/>
        <lane id=":1317975778_3_2" index="2" disallow="tram rail_urban rail rail_electric bicycle pedestrian ship" speed="27.78" length="9.63" shape="1545.41,887.47 1554.93,886.81"/>
    </edge>
    <edge id=":1317975778_6" function="internal">
        <lane id=":1317975778_6_0" index="0" disallow="tram rail_urban rail rail_electric bicycle pedestrian ship" speed="25.00" length="7.94" shape="1545.41,887.47 1548.23,887.44 1550.27,887.89 1551.53,888.81 1552.00,890.20"/>
    </edge>
    <edge id=":1317975780_0" function="internal">
        <lane id=":1317975780_0_0" index="0" disallow="tram rail_urban rail rail_electric bicycle pedestrian ship" speed="27.78" length="0.10" shape="1447.97,914.61 1447.97,914.61"/>
        <lane id=":1317975780_0_1" index="1" disallow="tram rail_urban rail rail_electric bicycle pedestrian ship" speed="27.78" length="0.10" shape="1447.76,911.32 1447.76,911.32"/>
        <lane id=":1317975780_0_2" index="2" disallow="tram rail_urban rail rail_electric bicycle pedestrian ship" speed="27.78" length="0.10" shape="1447.55,908.03 1447.55,908.03"/>
    </edge>
    <edge id=":1345380563_0" function="internal">
        <lane id=":1345380563_0_0" index="0" disallow="tram rail_urban rail rail_electric bicycle pedestrian ship" speed="22.22" length="0.35" shape="1837.83,249.98 1838.16,250.11"/>
    </edge>
    <edge id=":1345381151_0" function="internal">
        <lane id=":1345381151_0_0" index="0" disallow="tram rail_urban rail rail_electric bicycle pedestrian ship" speed="27.78" length="7.29" shape="1630.47,252.27 1637.80,251.57"/>
        <lane id=":1345381151_0_1" index="1" disallow="tram rail_urban rail rail_electric bicycle pedestrian ship" speed="27.78" length="7.29" shape="1630.76,255.56 1638.02,254.86"/>
        <lane id=":1345381151_0_2" index="2" disallow="tram rail_urban rail rail_electric bicycle pedestrian ship" speed="27.78" length="7.29" shape="1631.05,258.85 1638.24,258.15"/>
    </edge>
    <edge id=":1345381151_3" function="internal">
        <lane id=":1345381151_3_0" index="0" disallow="tram rail_urban rail rail_electric bicycle pedestrian ship" speed="20.84" length="1.65" shape="1638.13,256.47 1638.02,254.86"/>
        <lane id=":1345381151_3_1" index="1" disallow="tram rail_urban rail rail_electric bicycle pedestrian ship" speed="20.84" length="1.65" shape="1638.13,256.47 1638.24,258.15"/>
    </edge>
    <edge id=":142010563_0" function="internal">
        <lane id=":142010563_0_0" index="0" disallow="tram rail_urban rail rail_electric ship" speed="25.00" length="5.03" shape="824.23,306.95 822.84,306.98 821.81,307.45 821.13,308.35 820.80,309.69"/>
    </edge>
    <edge id=":142010563_1" function="internal">
        <lane id=":142010563_1_0" index="0" disallow="tram rail_urban rail rail_electric bicycle pedestrian ship" speed="27.78" length="11.36" shape="824.23,306.95 820.90,306.55 818.63,306.29 816.35,306.06 813.01,305.73"/>
        <lane id=":142010563_1_1" index="1" disallow="tram rail_urban rail rail_electric bicycle pedestrian ship" speed="27.78" length="11.36" shape="824.63,303.68 821.28,303.27 818.99,303.01 816.69,302.77 813.34,302.44"/>
        <lane id=":142010563_1_2" index="2" disallow="tram rail_urban rail rail_electric bicycle pedestrian ship" speed="27.78" length="11.36" shape="825.04,300.40 821.66,299.99 819.35,299.73 817.04,299.49 813.66,299.16"/>
    </edge>
    <edge id=":142010563_4" function="internal">
        <lane id=":142010563_4_0" index="0" disallow="tram rail_urban rail rail_electric ship" speed="22.22" length="14.30" shape="819.91,295.48 820.23,299.58 819.50,302.39 818.38,305.22 817.52,309.38"/>
    </edge>
    <edge id=":142010563_5" function="internal">
        <lane id=":142010563_5_0" index="0" disallow="tram rail_urban rail rail_electric bicycle pedestrian ship" speed="25.00" length="6.90" shape="816.69,296.24 817.00,299.13 816.54,301.13 815.32,302.23 813.34,302.44"/>
        <lane id=":142010563_5_1" index="1" disallow="tram rail_urban rail rail_electric bicycle pedestrian ship" speed="25.00" length="6.90" shape="816.69,296.24 816.76,297.66 816.27,298.61 815.24,299.11 813.66,299.16"/>
    </edge>
    <edge id=":142010564_0" function="internal">
        <lane id=":142010564_0_0" index="0" disallow="tram rail_urban rail rail_electric ship" speed="22.22" length="0.31" shape="819.21,320.25 819.19,320.40"/>
        <lane id=":142010564_0_1" index="1" disallow="tram rail_urban rail rail_electric ship" speed="22.22" length="0.31" shape="815.99,319.54 815.91,320.01"/>
    </edge>
    <edge id=":142018268_0" function="internal">
        <lane id=":142018268_0_0" index="0" disallow="tram rail_urban rail rail_electric ship" speed="25.00" length="4.56" shape="2562.35,1278.08 2563.86,1282.38"/>
    </edge>
    <edge id=":142018268_1" function="internal">
        <lane id=":142018268_1_0" index="0" disallow="tram rail_urban rail rail_electric bicycle pedestrian ship" speed="25.00" length="9.51" shape="2559.07,1278.43 2559.81,1287.91"/>
    </edge>
    <edge id=":142165424_0" function="internal">
        <lane id=":142165424_0_0" index="0" disallow="tram rail_urban rail rail_electric bicycle pedestrian ship" speed="27.78" length="9.33" shape="893.77,946.81 892.86,951.89"/>