<?xml version="1.0" encoding="UTF-8"?>

<!-- generated on Mon Sep  5 15:50:18 2016 by SUMO polyconvert Version 0.25.0
<?xml version="1.0" encoding="UTF-8"?>

<configuration xmlns:xsi="http://www.w3.org/2001/XMLSchema-instance" xsi:noNamespaceSchemaLocation="http://sumo.dlr.de/xsd/polyconvertConfiguration.xsd">

    <input>
        <net-file value="ipanema.net.xml"/>
        <osm-files value="ipanema.osm.xml"/>
        <type-file value="osmPolyconvert.typ.xml"/>
    </input>

    <output>
        <output-file value="ipanema.poly.xml"/>
    </output>

    <processing>
        <poi-layer-offset value="5"/>
    </processing>

</configuration>


<additional xmlns:xsi="http://www.w3.org/2001/XMLSchema-instance" xsi:noNamespaceSchemaLocation="http://sumo.dlr.de/xsd/additional_file.xsd">
    <location netOffset="-682131.96,2543399.06" convBoundary="-22938.06,-10609.21,132935.00,4223.51" origBoundary="-43.446474,-23.082540,-41.925507,-22.950363" projParameter="+proj=utm +zone=23 +ellps=WGS84 +datum=WGS84 +units=m +no_defs"/>-->
<shapes>
    <poly id="115811898" type="building" color="255,230,230" fill="1" layer="-1.00" shape="3517.64,365.49 3520.59,363.84 3521.92,366.22 3518.98,367.86 3517.64,365.49"/>
    <poly id="115811901" type="building" color="255,230,230" fill="1" layer="-1.00" shape="3432.02,591.84 3435.22,592.24 3436.37,583.32 3433.16,582.92 3432.02,591.84"/>
    <poly id="115811902" type="building" color="255,230,230" fill="1" layer="-1.00" shape="3454.59,665.73 3457.02,668.33 3459.67,665.88 3457.25,663.29 3454.59,665.73"/>
    <poly id="115811905" type="building" color="255,230,230" fill="1" layer="-1.00" shape="3448.63,506.64 3445.87,515.12 3448.90,516.09 3451.65,507.62 3448.63,506.64"/>
    <poly id="115811906" type="building" color="255,230,230" fill="1" layer="-1.00" shape="3460.08,777.78 3462.46,779.90 3464.75,777.34 3462.38,775.23 3460.08,777.78"/>
    <poly id="115811907" type="building" color="255,230,230" fill="1" layer="-1.00" shape="3450.02,498.41 3452.71,489.96 3455.87,490.96 3453.17,499.40 3450.02,498.41"/>
    <poly id="115811908" type="building" color="255,230,230" fill="1" layer="-1.00" shape="3458.63,767.57 3461.25,764.78 3463.97,767.31 3461.34,770.10 3458.63,767.57"/>
    <poly id="115811909" type="building" color="255,230,230" fill="1" layer="-1.00" shape="3514.75,375.11 3516.13,377.84 3518.71,376.55 3517.32,373.83 3514.75,375.11"/>
    <poly id="115811910" type="building" color="255,230,230" fill="1" layer="-1.00" shape="3435.36,552.35 3436.69,543.73 3445.55,545.07 3444.23,553.70 3435.36,552.35"/>
    <poly id="115811911" type="building" color="255,230,230" fill="1" layer="-1.00" shape="3429.86,608.49 3433.11,608.99 3434.48,600.32 3431.23,599.81 3429.86,608.49"/>
    <poly id="115811912" type="building" color="255,230,230" fill="1" layer="-1.00" shape="3455.24,655.75 3457.07,658.16 3459.75,656.16 3457.92,653.74 3455.24,655.75"/>
    <poly id="117016023" type="building" color="255,230,230" fill="1" layer="-1.00" shape="1615.23,822.76 1605.35,823.39 1607.79,861.37 1617.66,860.75 1615.23,822.76"/>
    <poly id="119505476" type="building" color="255,230,230" fill="1" layer="-1.00" shape="536.05,768.39 545.62,696.16 551.38,689.37 560.87,684.62 563.14,683.78 568.19,687.13 570.16,690.59 566.65,691.71 551.51,699.76 547.54,727.61 562.06,733.54 602.40,740.08 615.50,680.95 781.74,678.93 791.91,706.61 779.67,710.43 748.12,719.67 736.08,724.98 738.70,736.37 723.26,746.86 702.74,753.23 678.51,756.88 680.49,768.16 667.09,779.02 637.62,781.52 621.89,776.52 619.84,785.09 592.53,787.87 593.36,780.53 582.82,772.72 563.66,764.08 562.82,770.81 536.05,768.39"/>
    <poly id="119505476#1" type="shop" color="237,199,255" fill="1" layer="-1.00" shape="536.05,768.39 545.62,696.16 551.38,689.37 560.87,684.62 563.14,683.78 568.19,687.13 570.16,690.59 566.65,691.71 551.51,699.76 547.54,727.61 562.06,733.54 602.40,740.08 615.50,680.95 781.74,678.93 791.91,706.61 779.67,710.43 748.12,719.67 736.08,724.98 738.70,736.37 723.26,746.86 702.74,753.23 678.51,756.88 680.49,768.16 667.09,779.02 637.62,781.52 621.89,776.52 619.84,785.09 592.53,787.87 593.36,780.53 582.82,772.72 563.66,764.08 562.82,770.81 536.05,768.39"/>
    <poly id="119505477" type="landuse" color="194,194,130" fill="1" layer="-3.00" shape="631.66,1026.83 719.38,973.94 846.59,920.39 861.43,901.56 825.24,793.76 706.78,822.54 652.85,827.91 600.04,827.73 621.82,994.48 631.66,1026.83"/>
    <poly id="119505477#1" type="leisure" color="207,245,201" fill="1" layer="-2.00" shape="631.66,1026.83 719.38,973.94 846.59,920.39 861.43,901.56 825.24,793.76 706.78,822.54 652.85,827.91 600.04,827.73 621.82,994.48 631.66,1026.83"/>
    <poly id="119640974" type="leisure" color="207,245,201" fill="1" layer="-2.00" shape="997.11,431.77 1115.79,425.76 1137.00,424.47 1133.92,374.33 1115.48,375.46 1112.10,320.54 1104.87,320.97 988.72,326.78 997.11,431.77"/>
    <poly id="121743607" type="shop" color="237,199,255" fill="1" layer="-1.00" shape="1785.42,489.45 1783.42,455.19 1811.88,453.55 1813.88,487.81 1785.42,489.45"/>
    <poly id="140123303" type="residential" color="235,235,227" fill="1" layer="-3.00" shape="2531.10,890.59 2515.18,790.26 2499.42,744.94 2491.55,731.55 2487.16,701.37 2329.34,717.00 2338.33,814.79 2466.71,802.40 2466.90,822.36 2337.05,834.74 2339.12,857.24 2408.10,850.96 2410.56,877.64 2450.21,873.92 2477.21,871.38 2479.23,895.43 2531.10,890.59"/>
    <poly id="140123319" type="residential" color="235,235,227" fill="1" layer="-3.00" shape="1880.07,484.01 2076.18,471.03 2075.08,455.57 2073.97,439.94 2073.25,429.86 2072.76,419.71 2072.22,411.61 2071.17,396.04 2070.45,385.16 2069.59,372.40 1873.49,385.36 1880.07,484.01"/>
    <poly id="140123321" type="residential" color="235,235,227" fill="1" layer="-3.00" shape="2103.04,590.47 2299.14,577.50 2292.55,478.86 2096.45,491.84 2103.04,590.47"/>
    <poly id="140123322" type="residential" color="235,235,227" fill="1" layer="-3.00" shape="1653.06,383.83 1848.95,368.01 1840.91,269.47 1645.02,285.29 1653.06,383.83"/>
    <poly id="140123326" type="residential" color="235,235,227" fill="1" layer="-3.00" shape="1442.88,512.87 1638.98,499.89 1632.40,401.25 1436.30,414.22 1442.88,512.87"/>
    <poly id="140123327" type="residential" color="235,235,227" fill="1" layer="-3.00" shape="1893.92,723.57 2090.03,710.60 2083.44,611.96 1887.34,624.92 1893.92,723.57"/>
    <poly id="140123328" type="residential" color="235,235,227" fill="1" layer="-3.00" shape="1467.57,875.01 1664.78,860.46 1661.44,815.69 1464.24,830.24 1467.57,875.01"/>
    <poly id="140123330" type="residential" color="235,235,227" fill="1" layer="-3.00" shape="1662.17,500.94 1858.28,487.97 1851.69,389.33 1655.59,402.29 1662.17,500.94"/>
    <poly id="140123332" type="residential" color="235,235,227" fill="1" layer="-3.00" shape="1870.69,366.90 2066.58,351.08 2061.53,292.31 2058.55,252.54 1859.83,268.55 1862.70,325.66 1870.69,366.90"/>
    <poly id="140123333" type="residential" color="235,235,227" fill="1" layer="-3.00" shape="1226.04,529.51 1422.14,516.54 1415.56,417.90 1219.46,430.87 1226.04,529.51"/>
    <poly id="140123336" type="residential" color="235,235,227" fill="1" layer="-3.00" shape="1901.26,786.81 2098.57,773.64 2095.54,728.84 1898.24,742.01 1901.26,786.81"/>
    <poly id="140123338" type="residential" color="235,235,227" fill="1" layer="-3.00" shape="1027.06,844.15 1228.16,832.97 1224.84,788.19 1025.27,801.91 1027.06,844.15"/>
    <poly id="140123340" type="residential" color="235,235,227" fill="1" layer="-3.00" shape="2088.39,355.52 2284.29,339.70 2276.25,241.16 2080.36,256.98 2085.06,314.68 2087.82,348.54 2088.39,355.52"/>
    <poly id="140123345" type="residential" color="235,235,227" fill="1" layer="-3.00" shape="1678.00,740.47 1875.30,727.31 1872.28,682.51 1674.98,695.67 1678.00,740.47"/>
    <poly id="140123346" type="amenity" color="237,199,199" fill="1" layer="-1.00" shape="967.97,749.04 999.03,748.33 1001.64,787.73 983.74,788.27 967.97,749.04"/>
    <poly id="140123347" type="residential" color="235,235,227" fill="1" layer="-3.00" shape="2311.93,452.84 2508.03,439.85 2501.44,341.21 2305.34,354.19 2311.93,452.84"/>
    <poly id="140123350" type="residential" color="235,235,227" fill="1" layer="-3.00" shape="1682.18,799.85 1879.48,786.69 1876.46,741.89 1679.16,755.06 1682.18,799.85"/>
    <poly id="140123352" type="residential" color="235,235,227" fill="1" layer="-3.00" shape="2117.83,827.55 2313.93,814.58 2307.34,715.93 2111.24,728.90 2117.83,827.55"/>
    <poly id="140123354" type="residential" color="235,235,227" fill="1" layer="-3.00" shape="1905.99,867.74 2109.92,924.69 2112.60,992.02 1911.03,932.67 1905.99,867.74"/>
    <poly id="140123355" type="residential" color="235,235,227" fill="1" layer="-3.00" shape="1434.83,397.53 1630.94,384.55 1624.35,285.92 1428.25,298.88 1434.83,397.53"/>
    <poly id="140123356" type="residential" color="235,235,227" fill="1" layer="-3.00" shape="1885.97,604.56 2082.07,591.59 2075.48,492.95 1879.38,505.91 1885.97,604.56"/>
    <poly id="140123357" type="residential" color="235,235,227" fill="1" layer="-3.00" shape="2113.18,708.73 2309.29,695.76 2302.70,597.12 2106.59,610.09 2113.18,708.73"/>
    <poly id="140123359" type="residential" color="235,235,227" fill="1" layer="-3.00" shape="952.35,688.45 994.78,687.70 996.45,727.67 965.66,730.24 952.35,688.45"/>
    <poly id="140123360" type="residential" color="235,235,227" fill="1" layer="-3.00" shape="1460.59,754.48 1657.89,741.32 1654.87,696.52 1457.57,709.69 1460.59,754.48"/>
    <poly id="140123364" type="residential" color="235,235,227" fill="1" layer="-3.00" shape="1904.32,847.06 2101.62,833.89 2098.60,789.10 1901.30,802.27 1904.32,847.06"/>
    <poly id="140123365" type="residential" color="235,235,227" fill="1" layer="-3.00" shape="1458.03,697.98 1655.33,684.82 1652.32,640.02 1455.02,653.19 1458.03,697.98"/>
    <poly id="140123366" type="residential" color="235,235,227" fill="1" layer="-3.00" shape="2103.94,848.95 1963.23,857.27 1963.67,871.00 2107.90,912.30 2103.94,848.95"/>
    <poly id="140123368" type="residential" color="235,235,227" fill="1" layer="-3.00" shape="1010.76,543.49 1206.87,530.53 1200.28,431.89 1004.18,444.84 1010.76,543.49"/>
    <poly id="140123369" type="residential" color="235,235,227" fill="1" layer="-3.00" shape="2530.89,459.36 2693.04,449.46 2699.20,549.41 2537.05,559.31 2530.89,459.36"/>
    <poly id="140123373" type="residential" color="235,235,227" fill="1" layer="-3.00" shape="1446.59,639.00 1650.14,625.30 1643.42,526.41 1439.86,540.13 1446.59,639.00"/>
    <poly id="140123374" type="residential" color="235,235,227" fill="1" layer="-3.00" shape="1234.70,653.56 1430.81,640.59 1424.23,541.95 1228.13,554.92 1234.70,653.56"/>
    <poly id="140123375" type="residential" color="235,235,227" fill="1" layer="-3.00" shape="2700.89,329.11 2728.51,328.50 2850.26,420.78 2707.73,431.78 2700.89,329.11"/>
    <poly id="140123377" type="residential" color="235,235,227" fill="1" layer="-3.00" shape="1465.27,816.66 1662.47,802.11 1659.13,757.34 1461.93,771.89 1465.27,816.66"/>
    <poly id="140123378" type="residential" color="235,235,227" fill="1" layer="-3.00" shape="1245.29,772.59 1442.49,758.05 1439.16,713.27 1241.95,727.81 1245.29,772.59"/>
    <poly id="140123380" type="residential" color="235,235,227" fill="1" layer="-3.00" shape="1686.06,856.87 1883.37,843.70 1880.35,798.90 1683.05,812.07 1686.06,856.87"/>
    <poly id="140123382" type="residential" color="235,235,227" fill="1" layer="-3.00" shape="1027.58,787.86 1224.78,773.32 1221.45,728.54 1024.24,743.08 1027.58,787.86"/>
    <poly id="140123383" type="residential" color="235,235,227" fill="1" layer="-3.00" shape="1249.46,832.24 1446.68,817.69 1443.34,772.91 1246.14,787.46 1249.46,832.24"/>
    <poly id="140123384" type="residential" color="235,235,227" fill="1" layer="-3.00" shape="1218.75,411.26 1414.85,398.29 1408.28,299.65 1212.17,312.62 1218.75,411.26"/>
    <poly id="140123386" type="residential" color="235,235,227" fill="1" layer="-3.00" shape="906.12,452.74 912.03,558.68 898.37,558.66 864.96,453.81 906.12,452.74"/>
    <poly id="140123390" type="residential" color="235,235,227" fill="1" layer="-3.00" shape="1023.65,727.68 1220.87,713.14 1218.42,670.91 1020.33,682.90 1023.65,727.68"/>
    <poly id="140123391" type="residential" color="235,235,227" fill="1" layer="-3.00" shape="1253.35,889.52 1450.55,874.97 1447.23,830.19 1250.02,844.74 1253.35,889.52"/>
    <poly id="140123392" type="residential" color="235,235,227" fill="1" layer="-3.00" shape="1240.57,712.94 1437.77,698.40 1434.44,653.63 1237.24,668.17 1240.57,712.94"/>
    <poly id="140123394" type="residential" color="235,235,227" fill="1" layer="-3.00" shape="972.64,328.07 978.96,430.14 917.34,433.42 911.02,325.38 972.64,328.07"/>
    <poly id="140123395" type="residential" color="235,235,227" fill="1" layer="-3.00" shape="1013.38,669.33 1214.17,654.19 1207.58,555.54 1011.48,568.50 1013.38,669.33"/>
    <poly id="140123396" type="residential" color="235,235,227" fill="1" layer="-3.00" shape="1677.01,681.04 1874.31,667.88 1871.29,623.08 1673.99,636.25 1677.01,681.04"/>
    <poly id="140123399" type="residential" color="235,235,227" fill="1" layer="-3.00" shape="1883.28,864.89 1890.38,924.23 1745.61,882.69 1744.69,872.65 1883.28,864.89"/>
    <poly id="140123400" type="residential" color="235,235,227" fill="1" layer="-3.00" shape="2302.77,338.49 2498.66,322.67 2490.62,224.13 2461.09,226.52 2294.73,239.96 2302.77,338.49"/>
    <poly id="140123402" type="residential" color="235,235,227" fill="1" layer="-3.00" shape="2097.46,468.40 2293.57,455.43 2286.98,356.79 2090.88,369.76 2091.52,379.44 2094.23,420.05 2094.82,428.78 2095.12,433.40 2096.76,457.91 2097.00,461.44 2097.46,468.40"/>
    <poly id="140123404" type="residential" color="235,235,227" fill="1" layer="-3.00" shape="2322.82,575.36 2518.92,562.39 2512.34,463.74 2316.23,476.73 2322.82,575.36"/>
    <poly id="140123406" type="residential" color="235,235,227" fill="1" layer="-3.00" shape="911.04,573.98 945.07,672.03 995.92,668.17 991.52,588.95 988.84,589.02 976.08,582.11 963.17,569.92 911.04,573.98"/>
    <poly id="140123414" type="residential" color="235,235,227" fill="1" layer="-3.00" shape="2126.18,929.51 2301.67,984.15 2305.71,1010.52 2337.20,1022.01 2329.62,1054.34 2132.03,995.21 2126.18,929.51"/>
    <poly id="140123418" type="residential" color="235,235,227" fill="1" layer="-3.00" shape="860.78,436.26 840.06,388.62 829.62,336.24 830.93,320.15 896.87,326.79 904.68,435.68 860.78,436.26"/>
    <poly id="140123423" type="residential" color="235,235,227" fill="0" layer="-3.00" shape="2590.46,219.84 2508.15,224.34 2514.84,327.76 2671.50,316.59 2682.06,295.29 2678.19,287.38 2651.85,266.14"/>
    <poly id="140123425" type="residential" color="235,235,227" fill="1" layer="-3.00" shape="2318.52,596.08 2526.36,581.38 2527.51,610.16 2501.86,642.18 2502.86,679.93 2327.21,697.15 2318.52,596.08"/>
    <poly id="140123429" type="residential" color="235,235,227" fill="1" layer="-3.00" shape="979.59,450.66 989.19,530.98 985.79,531.76 971.94,541.86 962.11,553.43 927.49,555.38 920.26,451.56 979.59,450.66"/>
    <poly id="140123430" type="residential" color="235,235,227" fill="1" layer="-3.00" shape="2961.40,515.31 2897.98,542.50 2873.91,529.85 2843.71,531.59 2778.71,534.62 2720.46,537.82 2715.10,448.33 2860.33,441.26 2877.42,447.66 2961.40,515.31"/>
    <poly id="140123432" type="residential" color="235,235,227" fill="1" layer="-3.00" shape="1032.81,858.42 1226.90,845.97 1230.07,890.76 1062.24,900.27 1047.88,892.61 1038.36,882.26 1034.07,869.98 1032.81,858.42"/>
    <poly id="14480620" type="water" color="181,209,209" fill="0" layer="-4.00" shape="937.94,956.44 922.77,917.22"/>
    <poly id="145338235" type="amenity" color="237,199,199" fill="1" layer="-1.00" shape="1833.67,441.87 1836.28,489.84 1858.32,488.65 1855.70,440.68 1833.67,441.87"/>
    <poly id="145338235#1" type="building" color="255,230,230" fill="1" layer="-1.00" shape="1833.67,441.87 1836.28,489.84 1858.32,488.65 1855.70,440.68 1833.67,441.87"/>
    <poly id="145338252" type="water" color="181,209,209" fill="1" layer="-4.00" shape="1797.46,562.34 1800.55,565.72 1817.98,565.31 1822.90,568.68 1827.68,578.31 1830.12,579.08 1832.53,576.63 1834.11,573.39 1833.59,564.31 1832.53,561.10 1827.02,557.74 1817.49,557.85 1814.23,557.08 1812.15,552.68 1812.28,546.83 1811.03,544.02 1808.78,542.02 1803.49,541.69 1802.10,543.72 1803.15,546.13 1805.61,548.72 1805.45,552.35 1803.27,556.41 1799.85,559.27 1797.64,560.11 1797.46,562.34"/>
    <poly id="14584821" type="natural" color="140,196,107" fill="1" layer="-4.00" shape="791.27,178.69 492.24,167.70 -3.57,100.61 -203.69,62.25 -324.66,26.11 -404.79,-14.72 -404.85,-31.27 -397.67,-55.47 -433.05,47.18 -313.92,100.23 -228.62,131.96 -198.80,140.16 -98.67,157.33 99.27,190.69 238.98,213.30 464.21,237.90 637.83,256.79 781.46,274.67 791.27,178.69"/>
    <poly id="15061330" type="natural" color="140,196,107" fill="1" layer="-4.00" shape="3627.79,155.10 3631.88,159.80 3640.98,163.71 3655.09,172.93 3674.90,188.21 3710.57,181.25 3707.41,177.83 3717.20,176.45 3712.76,155.10 3680.34,137.66 3658.72,120.42 3654.20,135.22 3640.42,139.57 3622.77,135.41 3620.98,138.15 3619.41,137.83 3614.48,146.40 3627.79,155.10"/>
    <poly id="15061510" type="natural" color="140,196,107" fill="1" layer="-4.00" shape="3408.13,-52.78 3418.76,-58.66 3547.24,82.65 3525.02,77.42 3520.84,64.96 3503.73,65.68 3485.05,60.90 3453.08,39.77 3433.75,23.99 3373.23,-25.82 3372.71,-26.32 3380.14,-36.92 3401.20,-43.69 3408.13,-52.78"/>
    <poly id="15061804" type="natural" color="140,196,107" fill="1" layer="-4.00" shape="3361.36,-74.53 3355.13,-63.02 3316.56,-71.64 3303.83,-79.39 3300.19,-85.13 3298.69,-92.17 3296.01,-108.05 3296.56,-111.99 3298.18,-114.01 3300.11,-115.13 3304.11,-115.44 3305.65,-115.94 3306.99,-117.21 3307.29,-120.24 3307.21,-127.62 3309.64,-139.81 3313.36,-141.36 3332.40,-136.03 3349.22,-135.15 3418.76,-58.66 3408.13,-52.78 3402.14,-54.72 3396.67,-57.19 3390.68,-57.55 3381.88,-68.10 3373.13,-73.38 3367.35,-74.98 3361.36,-74.53"/>
    <poly id="15482545" type="tourism" color="207,245,201" fill="1" layer="-2.00" shape="1659.15,517.23 1666.34,625.24 1869.63,611.85 1862.44,503.82 1659.15,517.23"/>
    <poly id="16218078" type="landuse" color="194,194,130" fill="1" layer="-3.00" shape="1108.70,978.04 1171.52,974.49 1187.73,975.32 1226.85,993.77 1258.28,1018.00 1258.47,1021.79 1256.98,1023.92 1246.22,1030.27 1236.43,1036.05 1202.88,1055.85 1188.44,1063.76 1159.25,1087.16 1156.60,1090.57 1148.62,1100.82 1135.26,1117.98 1113.70,1149.98 1112.20,1155.47 1100.40,1163.00 1087.54,1171.71 1069.52,1183.49 1057.97,1185.92 1046.59,1183.12 1037.92,1172.89 1026.04,1141.12 993.51,1044.28 991.34,1028.38 992.18,1023.06 993.95,1011.73 998.35,1001.69 1005.92,992.82 1014.32,989.15 1016.31,988.28 1023.42,987.63 1025.45,988.76 1026.30,990.27 1027.18,993.92 1029.60,993.79 1031.90,993.60 1032.37,989.55 1033.01,987.72 1034.64,986.33 1051.87,982.28 1083.53,979.06 1108.70,978.04"/>
    <poly id="16218078#1" type="leisure" color="207,245,201" fill="1" layer="-2.00" shape="1108.70,978.04 1171.52,974.49 1187.73,975.32 1226.85,993.77 1258.28,1018.00 1258.47,1021.79 1256.98,1023.92 1246.22,1030.27 1236.43,1036.05 1202.88,1055.85 1188.44,1063.76 1159.25,1087.16 1156.60,1090.57 1148.62,1100.82 1135.26,1117.98 1113.70,1149.98 1112.20,1155.47 1100.40,1163.00 1087.54,1171.71 1069.52,1183.49 1057.97,1185.92 1046.59,1183.12 1037.92,1172.89 1026.04,1141.12 993.51,1044.28 991.34,1028.38 992.18,1023.06 993.95,1011.73 998.35,1001.69 1005.92,992.82 1014.32,989.15 1016.31,988.28 1023.42,987.63 1025.45,988.76 1026.30,990.27 1027.18,993.92 1029.60,993.79 1031.90,993.60 1032.37,989.55 1033.01,987.72 1034.64,986.33 1051.87,982.28 1083.53,979.06 1108.70,978.04"/>
    <poly id="188471647" type="building" color="255,230,230" fill="1" layer="-1.00" shape="3320.93,357.45 3312.19,389.25 3327.36,393.37 3336.11,361.57 3320.93,357.45"/>
    <poly id="188471648" type="building" color="255,230,230" fill="1" layer="-1.00" shape="3375.56,275.32 3359.32,271.35 3352.85,297.42 3369.09,301.41 3375.56,275.32"/>
    <poly id="191291163" type="natural" color="140,196,107" fill="1" layer="-4.00" shape="1096.21,275.89 1099.78,278.89 1151.71,274.98 1154.72,273.57 1159.21,258.19 1157.75,251.38 1144.74,243.61 1114.48,243.98 1098.14,257.02 1095.64,256.59 1096.21,275.89"/>
    <poly id="191291164" type="natural" color="140,196,107" fill="1" layer="-4.00" shape="1029.92,284.20 1026.98,280.71 1026.86,266.78 1034.50,258.41 1062.41,258.82 1083.35,262.67 1086.23,266.55 1086.14,275.62 1080.38,280.35 1029.92,284.20"/>
    <poly id="191291165" type="natural" color="140,196,107" fill="1" layer="-4.00" shape="835.99,252.44 820.98,266.86 817.37,273.53 822.25,276.48 849.80,279.67 859.48,273.23 860.34,254.38 835.99,252.44"/>
    <poly id="191291166" type="natural" color="140,196,107" fill="1" layer="-4.00" shape="1285.31,234.12 1302.10,257.70 1299.17,265.39 1271.14,267.11 1268.04,260.85 1274.37,239.45 1278.16,234.21 1285.31,234.12"/>
    <poly id="196603681" type="tourism" color="207,245,201" fill="1" layer="-2.00" shape="1425.53,560.76 1418.57,561.02 1418.98,569.22 1426.07,568.89 1425.53,560.76"/>
    <poly id="196734707" type="building" color="255,230,230" fill="1" layer="-1.00" shape="3459.43,253.34 3485.97,260.43 3490.27,260.56 3493.43,259.54 3495.82,257.56 3497.29,255.00 3497.57,251.74 3496.80,248.41 3495.08,245.31 3491.67,241.96 3431.52,226.39 3429.67,226.63 3426.40,228.05 3423.60,230.94 3422.15,235.28 3422.82,239.66 3425.36,243.25 3428.16,245.00 3440.69,248.35 3434.18,275.09 3452.91,280.05 3459.43,253.34"/>
    <poly id="196734707#1" type="shop" color="237,199,255" fill="1" layer="-1.00" shape="3459.43,253.34 3485.97,260.43 3490.27,260.56 3493.43,259.54 3495.82,257.56 3497.29,255.00 3497.57,251.74 3496.80,248.41 3495.08,245.31 3491.67,241.96 3431.52,226.39 3429.67,226.63 3426.40,228.05 3423.60,230.94 3422.15,235.28 3422.82,239.66 3425.36,243.25 3428.16,245.00 3440.69,248.35 3434.18,275.09 3452.91,280.05 3459.43,253.34"/>
    <poly id="206237926" type="tourism" color="207,245,201" fill="1" layer="-2.00" shape="3264.86,1040.45 3308.79,1029.34 3299.27,992.08 3255.34,1003.20 3264.86,1040.45"/>
    <poly id="207973011" type="building" color="255,230,230" fill="0" layer="-1.00" shape="826.87,1057.42 822.63,1050.02"/>
    <poly id="220553141" type="residential" color="235,235,227" fill="1" layer="-3.00" shape="1137.00,424.47 1198.78,420.71 1193.10,315.20 1112.10,320.54 1115.48,375.46 1133.92,374.33 1137.00,424.47"/>
    <poly id="220554782" type="amenity" color="237,199,199" fill="1" layer="-1.00" shape="1742.70,895.68 1743.68,866.06 1735.39,866.03 1728.86,869.05 1725.43,872.43 1723.24,876.37 1723.07,882.08 1724.78,887.53 1728.69,891.58 1742.70,895.68"/>
    <poly id="220555043" type="tourism" color="207,245,201" fill="1" layer="-2.00" shape="1708.87,879.36 1706.52,882.29 1702.48,884.04 1699.52,883.97 1697.35,883.22 1694.46,880.84 1692.83,877.14 1692.76,874.73 1695.20,869.70 1698.32,867.73 1701.44,867.22 1705.63,868.46 1708.49,871.30 1709.59,874.24 1708.87,879.36"/>
    <poly id="220555124" type="residential" color="235,235,227" fill="1" layer="-3.00" shape="2122.51,846.87 2189.54,841.90 2196.55,933.32 2128.09,911.52 2122.51,846.87"/>
    <poly id="220555125" type="residential" color="235,235,227" fill="1" layer="-3.00" shape="2255.34,951.71 2248.10,892.27 2251.25,888.19 2250.84,877.53 2247.48,872.92 2236.20,873.32 2232.67,876.66 2234.74,889.97 2239.55,892.91 2244.25,948.50 2209.38,937.40 2200.88,841.06 2314.69,832.62 2317.34,895.01 2296.14,895.65 2299.09,965.82 2255.34,951.71"/>
    <poly id="220555265" type="tourism" color="207,245,201" fill="1" layer="-2.00" shape="991.52,588.95 990.43,561.76 989.19,530.98 985.79,531.76 971.94,541.86 962.38,554.20 962.84,563.35 963.17,569.92 976.08,582.11 988.84,589.02 991.52,588.95"/>
    <poly id="221843553" type="building" color="255,230,230" fill="1" layer="-1.00" shape="3650.61,287.02 3656.23,270.71 3745.76,301.12 3740.16,317.45 3650.61,287.02"/>
    <poly id="221843558" type="building" color="255,230,230" fill="1" layer="-1.00" shape="3752.76,318.99 3754.87,310.05 3765.49,312.51 3767.20,305.25 3832.11,320.30 3828.31,336.49 3752.76,318.99"/>
    <poly id="221843560" type="military" color="153,153,92" fill="1" layer="-3.00" shape="3677.58,275.47 3701.68,224.89 3804.15,250.66 3873.90,295.97 3878.42,317.83 3841.58,318.02 3677.58,275.47"/>
    <poly id="224303040" type="tourism" color="207,245,201" fill="1" layer="-2.00" shape="744.00,464.15 744.83,489.84 763.94,568.64 781.42,581.01 910.97,919.37 946.40,916.76 990.28,910.56 995.92,905.94 996.41,898.13 834.14,457.31 744.00,464.15"/>
    <poly id="224303041" type="tourism" color="207,245,201" fill="1" layer="-2.00" shape="739.14,448.89 830.41,444.30 803.55,356.23 803.23,323.28 797.16,315.42 749.01,310.94 739.14,448.89"/>
    <poly id="224432056" type="natural" color="140,196,107" fill="1" layer="-4.00" shape="3248.13,-142.28 3230.01,-119.46 3196.91,-86.96 3135.12,-51.95 2921.05,27.00 2929.76,53.18 2954.70,55.58 3159.20,-10.19 3181.89,-20.53 3198.95,-31.17 3214.54,-43.30 3233.57,-61.17 3251.81,-80.89 3263.50,-91.41 3265.97,-99.71 3266.38,-105.70 3262.47,-132.75 3260.91,-138.06 3248.13,-142.28"/>
    <poly id="227234557" type="leisure" color="207,245,201" fill="1" layer="-2.00" shape="1147.80,980.26 1153.55,1016.82 1170.88,1014.19 1165.28,977.61 1147.80,980.26"/>
    <poly id="227234557#1" type="sport" color="79,230,125" fill="1" layer="-2.00" shape="1147.80,980.26 1153.55,1016.82 1170.88,1014.19 1165.28,977.61 1147.80,980.26"/>
    <poly id="227234558" type="leisure" color="207,245,201" fill="1" layer="-2.00" shape="1107.49,986.63 1089.91,989.14 1095.19,1025.97 1112.79,1023.47 1107.49,986.63"/>
    <poly id="227234558#1" type="sport" color="79,230,125" fill="1" layer="-2.00" shape="1107.49,986.63 1089.91,989.14 1095.19,1025.97 1112.79,1023.47 1107.49,986.63"/>
    <poly id="227234559" type="leisure" color="207,245,201" fill="1" layer="-2.00" shape="1153.55,1016.82 1147.80,980.26 1129.22,983.08 1134.85,1019.65 1153.55,1016.82"/>
    <poly id="227234559#1" type="sport" color="79,230,125" fill="1" layer="-2.00" shape="1153.55,1016.82 1147.80,980.26 1129.22,983.08 1134.85,1019.65 1153.55,1016.82"/>
    <poly id="227234560" type="leisure" color="207,245,201" fill="1" layer="-2.00" shape="1134.85,1019.65 1129.22,983.08 1111.77,985.73 1117.36,1022.30 1134.85,1019.65"/>
    <poly id="227234560#1" type="sport" color="79,230,125" fill="1" layer="-2.00" shape="1134.85,1019.65 1129.22,983.08 1111.77,985.73 1117.36,1022.30 1134.85,1019.65"/>
    <poly id="227234561" type="leisure" color="207,245,201" fill="1" layer="-2.00" shape="1170.55,979.68 1176.21,1016.43 1192.92,1013.88 1187.25,977.13 1170.55,979.68"/>
    <poly id="227234561#1" type="sport" color="79,230,125" fill="1" layer="-2.00" shape="1170.55,979.68 1176.21,1016.43 1192.92,1013.88 1187.25,977.13 1170.55,979.68"/>
    <poly id="227234562" type="leisure" color="207,245,201" fill="1" layer="-2.00" shape="1195.87,999.44 1200.70,1033.87 1231.81,1029.55 1226.98,995.12 1195.87,999.44"/>
    <poly id="227234562#1" type="sport" color="79,230,125" fill="1" layer="-2.00" shape="1195.87,999.44 1200.70,1033.87 1231.81,1029.55 1226.98,995.12 1195.87,999.44"/>
    <poly id="255901725" type="landuse" color="194,194,130" fill="1" layer="-3.00" shape="1851.72,978.35 1877.81,985.96 1928.07,1000.61 1952.55,1007.75 1951.90,1010.24 1948.65,1013.32 1946.65,1011.19 1944.86,1005.54 1944.65,1011.15 1936.25,1008.96 1923.91,1009.11 1910.03,1005.67 1900.33,1000.08 1896.73,1001.05 1894.04,999.89 1891.47,997.38 1890.49,994.07 1886.87,993.45 1883.00,996.44 1856.99,986.94 1850.61,983.22 1851.72,978.35"/>
    <poly id="255901725#1" type="water" color="181,209,209" fill="1" layer="-4.00" shape="1851.72,978.35 1877.81,985.96 1928.07,1000.61 1952.55,1007.75 1951.90,1010.24 1948.65,1013.32 1946.65,1011.19 1944.86,1005.54 1944.65,1011.15 1936.25,1008.96 1923.91,1009.11 1910.03,1005.67 1900.33,1000.08 1896.73,1001.05 1894.04,999.89 1891.47,997.38 1890.49,994.07 1886.87,993.45 1883.00,996.44 1856.99,986.94 1850.61,983.22 1851.72,978.35"/>
    <poly id="255902404" type="landuse" color="194,194,130" fill="1" layer="-3.00" shape="1792.63,960.95 1790.58,961.45 1791.92,966.77 1797.17,970.47 1804.78,972.89 1816.16,973.23 1832.05,981.20 1839.32,980.64 1844.48,976.49 1835.88,971.57 1822.76,968.35 1792.63,960.95"/>
    <poly id="255902404#1" type="water" color="181,209,209" fill="1" layer="-4.00" shape="1792.63,960.95 1790.58,961.45 1791.92,966.77 1797.17,970.47 1804.78,972.89 1816.16,973.23 1832.05,981.20 1839.32,980.64 1844.48,976.49 1835.88,971.57 1822.76,968.35 1792.63,960.95"/>
    <poly id="255924843" type="parking" color="184,184,179" fill="1" layer="-1.00" shape="2127.45,1022.93 2128.58,1018.80 2287.10,1064.52 2285.38,1068.65 2127.45,1022.93"/>
    <poly id="255925048" type="parking" color="184,184,179" fill="1" layer="-1.00" shape="1717.01,905.60 1766.86,918.91 1768.37,913.41 1718.52,900.10 1717.01,905.60"/>
    <poly id="257212962" type="building" color="255,230,230" fill="1" layer="-1.00" shape="2574.63,1275.93 2576.59,1251.32 2618.59,1254.60 2616.63,1279.21 2574.63,1275.93"/>
    <poly id="257212963" type="building" color="255,230,230" fill="1" layer="-1.00" shape="2567.67,1220.80 2623.97,1211.33 2627.74,1233.54 2621.18,1244.99 2600.82,1242.71 2569.47,1231.37 2567.67,1220.80"/>
    <poly id="257212964" type="building" color="255,230,230" fill="1" layer="-1.00" shape="2558.32,1194.56 2555.27,1177.85 2570.57,1175.08 2578.00,1175.27 2590.98,1179.48 2604.82,1186.14 2558.32,1194.56"/>
    <poly id="257709027" type="building" color="255,230,230" fill="1" layer="-1.00" shape="2577.71,1213.30 2574.98,1197.12 2611.67,1190.99 2614.41,1207.16 2577.71,1213.30"/>